# generated using pymatgen
data_Na8Li2CaMg2Sc4TiBe7Al2(SiCl8)2
_symmetry_space_group_name_H-M   'P 1'
_cell_length_a   28.11200000
_cell_length_b   35.83000000
_cell_length_c   35.83400000
_cell_angle_alpha   100.31200000
_cell_angle_beta   91.95900000
_cell_angle_gamma   91.88900000
_symmetry_Int_Tables_number   1
_chemical_formula_structural   Na8Li2CaMg2Sc4TiBe7Al2(SiCl8)2
_chemical_formula_sum
'Na384 Li96 Ca48 Mg96 Sc192 Ti48 Be336 Al96 Si96 Cl768'
_cell_volume   35462.09792601
_cell_formula_units_Z   48
loop_
 _symmetry_equiv_pos_site_id
 _symmetry_equiv_pos_as_xyz
  1  'x, y, z'
loop_
 _atom_site_type_symbol
 _atom_site_label
 _atom_site_symmetry_multiplicity
 _atom_site_fract_x
 _atom_site_fract_y
 _atom_site_fract_z
 _atom_site_occupancy
  Na  Na1  1  0.458106  0.176323  0.450050  1
  Na  Na2  1  0.458106  0.176323  0.950050  1
  Na  Na3  1  0.458106  0.676324  0.450050  1
  Na  Na4  1  0.458106  0.676324  0.950050  1
  Na  Na5  1  0.958106  0.176323  0.450050  1
  Na  Na6  1  0.958106  0.176323  0.950050  1
  Na  Na7  1  0.958106  0.676324  0.450050  1
  Na  Na8  1  0.958106  0.676324  0.950050  1
  Na  Na9  1  0.042337  0.180096  0.467255  1
  Na  Na10  1  0.042337  0.180096  0.967255  1
  Na  Na11  1  0.042337  0.680097  0.467255  1
  Na  Na12  1  0.042337  0.680097  0.967255  1
  Na  Na13  1  0.542337  0.180096  0.467255  1
  Na  Na14  1  0.542337  0.180096  0.967255  1
  Na  Na15  1  0.542337  0.680097  0.467255  1
  Na  Na16  1  0.542337  0.680097  0.967255  1
  Na  Na17  1  0.459945  0.214627  0.447865  1
  Na  Na18  1  0.459945  0.214627  0.947865  1
  Na  Na19  1  0.459945  0.714628  0.447865  1
  Na  Na20  1  0.459945  0.714628  0.947865  1
  Na  Na21  1  0.959945  0.214627  0.447865  1
  Na  Na22  1  0.959945  0.214627  0.947865  1
  Na  Na23  1  0.959945  0.714628  0.447865  1
  Na  Na24  1  0.959945  0.714628  0.947865  1
  Na  Na25  1  0.458301  0.365079  0.446900  1
  Na  Na26  1  0.458301  0.365079  0.946900  1
  Na  Na27  1  0.458301  0.865079  0.446900  1
  Na  Na28  1  0.458301  0.865079  0.946900  1
  Na  Na29  1  0.958301  0.365079  0.446900  1
  Na  Na30  1  0.958301  0.365079  0.946900  1
  Na  Na31  1  0.958302  0.865079  0.446900  1
  Na  Na32  1  0.958302  0.865079  0.946900  1
  Na  Na33  1  0.041478  0.410947  0.458700  1
  Na  Na34  1  0.041478  0.410947  0.958700  1
  Na  Na35  1  0.041478  0.910947  0.458700  1
  Na  Na36  1  0.041478  0.910947  0.958700  1
  Na  Na37  1  0.541478  0.410947  0.458700  1
  Na  Na38  1  0.541478  0.410947  0.958700  1
  Na  Na39  1  0.541478  0.910947  0.458700  1
  Na  Na40  1  0.541478  0.910947  0.958700  1
  Na  Na41  1  0.456146  0.403694  0.446695  1
  Na  Na42  1  0.456146  0.403694  0.946695  1
  Na  Na43  1  0.456146  0.903694  0.446695  1
  Na  Na44  1  0.456146  0.903694  0.946695  1
  Na  Na45  1  0.956146  0.403694  0.446695  1
  Na  Na46  1  0.956146  0.403694  0.946695  1
  Na  Na47  1  0.956146  0.903694  0.446695  1
  Na  Na48  1  0.956146  0.903694  0.946695  1
  Na  Na49  1  0.199136  0.035745  0.489790  1
  Na  Na50  1  0.199136  0.035745  0.989790  1
  Na  Na51  1  0.199136  0.535745  0.489790  1
  Na  Na52  1  0.199136  0.535745  0.989790  1
  Na  Na53  1  0.699136  0.035745  0.489790  1
  Na  Na54  1  0.699136  0.035745  0.989790  1
  Na  Na55  1  0.699136  0.535745  0.489790  1
  Na  Na56  1  0.699136  0.535745  0.989790  1
  Na  Na57  1  0.196875  0.050058  0.426820  1
  Na  Na58  1  0.196875  0.050058  0.926820  1
  Na  Na59  1  0.196875  0.550059  0.426820  1
  Na  Na60  1  0.196875  0.550059  0.926820  1
  Na  Na61  1  0.696875  0.050058  0.426820  1
  Na  Na62  1  0.696875  0.050058  0.926820  1
  Na  Na63  1  0.696875  0.550059  0.426820  1
  Na  Na64  1  0.696875  0.550059  0.926820  1
  Na  Na65  1  0.041901  0.049924  0.323700  1
  Na  Na66  1  0.041901  0.049924  0.823700  1
  Na  Na67  1  0.041901  0.549924  0.323700  1
  Na  Na68  1  0.041901  0.549924  0.823700  1
  Na  Na69  1  0.541901  0.049924  0.323700  1
  Na  Na70  1  0.541901  0.049924  0.823700  1
  Na  Na71  1  0.541901  0.549924  0.323700  1
  Na  Na72  1  0.541901  0.549924  0.823700  1
  Na  Na73  1  0.457672  0.032780  0.319845  1
  Na  Na74  1  0.457672  0.032780  0.819845  1
  Na  Na75  1  0.457672  0.532780  0.319845  1
  Na  Na76  1  0.457672  0.532780  0.819845  1
  Na  Na77  1  0.957672  0.032780  0.319845  1
  Na  Na78  1  0.957672  0.032780  0.819845  1
  Na  Na79  1  0.957672  0.532780  0.319845  1
  Na  Na80  1  0.957672  0.532780  0.819845  1
  Na  Na81  1  0.040079  0.052087  0.285390  1
  Na  Na82  1  0.040079  0.052087  0.785390  1
  Na  Na83  1  0.040079  0.552087  0.285390  1
  Na  Na84  1  0.040079  0.552087  0.785390  1
  Na  Na85  1  0.540079  0.052087  0.285390  1
  Na  Na86  1  0.540079  0.052087  0.785390  1
  Na  Na87  1  0.540079  0.552087  0.285390  1
  Na  Na88  1  0.540079  0.552087  0.785390  1
  Na  Na89  1  0.041758  0.053104  0.134960  1
  Na  Na90  1  0.041758  0.053104  0.634960  1
  Na  Na91  1  0.041758  0.553103  0.134960  1
  Na  Na92  1  0.041758  0.553103  0.634960  1
  Na  Na93  1  0.541758  0.053104  0.134960  1
  Na  Na94  1  0.541758  0.053104  0.634960  1
  Na  Na95  1  0.541758  0.553103  0.134960  1
  Na  Na96  1  0.541758  0.553103  0.634960  1
  Na  Na97  1  0.458589  0.041212  0.089025  1
  Na  Na98  1  0.458589  0.041212  0.589025  1
  Na  Na99  1  0.458589  0.541212  0.089025  1
  Na  Na100  1  0.458589  0.541212  0.589025  1
  Na  Na101  1  0.958589  0.041212  0.089025  1
  Na  Na102  1  0.958589  0.041212  0.589025  1
  Na  Na103  1  0.958589  0.541212  0.089025  1
  Na  Na104  1  0.958589  0.541212  0.589025  1
  Na  Na105  1  0.043902  0.053316  0.096345  1
  Na  Na106  1  0.043902  0.053316  0.596345  1
  Na  Na107  1  0.043902  0.553316  0.096345  1
  Na  Na108  1  0.043902  0.553316  0.596345  1
  Na  Na109  1  0.543902  0.053316  0.096345  1
  Na  Na110  1  0.543902  0.053316  0.596345  1
  Na  Na111  1  0.543902  0.553316  0.096345  1
  Na  Na112  1  0.543902  0.553316  0.596345  1
  Na  Na113  1  0.300939  0.010273  0.464355  1
  Na  Na114  1  0.300939  0.010273  0.964355  1
  Na  Na115  1  0.300939  0.510273  0.464355  1
  Na  Na116  1  0.300939  0.510273  0.964355  1
  Na  Na117  1  0.800939  0.010273  0.464355  1
  Na  Na118  1  0.800939  0.010273  0.964355  1
  Na  Na119  1  0.800939  0.510273  0.464355  1
  Na  Na120  1  0.800939  0.510273  0.964355  1
  Na  Na121  1  0.303037  0.073169  0.449850  1
  Na  Na122  1  0.303037  0.073169  0.949850  1
  Na  Na123  1  0.303037  0.573169  0.449850  1
  Na  Na124  1  0.303037  0.573169  0.949850  1
  Na  Na125  1  0.803037  0.073169  0.449850  1
  Na  Na126  1  0.803037  0.073169  0.949850  1
  Na  Na127  1  0.803037  0.573169  0.449850  1
  Na  Na128  1  0.803037  0.573169  0.949850  1
  Na  Na129  1  0.201613  0.142734  0.095030  1
  Na  Na130  1  0.201613  0.142734  0.595030  1
  Na  Na131  1  0.201614  0.642734  0.095030  1
  Na  Na132  1  0.201614  0.642734  0.595030  1
  Na  Na133  1  0.701614  0.142734  0.095030  1
  Na  Na134  1  0.701614  0.142734  0.595030  1
  Na  Na135  1  0.701613  0.642734  0.095030  1
  Na  Na136  1  0.701613  0.642734  0.595030  1
  Na  Na137  1  0.115750  0.134130  0.088500  1
  Na  Na138  1  0.115750  0.134130  0.588500  1
  Na  Na139  1  0.115750  0.634130  0.088500  1
  Na  Na140  1  0.115750  0.634130  0.588500  1
  Na  Na141  1  0.615750  0.134130  0.088500  1
  Na  Na142  1  0.615750  0.134130  0.588500  1
  Na  Na143  1  0.615750  0.634130  0.088500  1
  Na  Na144  1  0.615750  0.634130  0.588500  1
  Na  Na145  1  0.117810  0.134154  0.049880  1
  Na  Na146  1  0.117810  0.134154  0.549880  1
  Na  Na147  1  0.117810  0.634154  0.049880  1
  Na  Na148  1  0.117810  0.634154  0.549880  1
  Na  Na149  1  0.617810  0.134154  0.049880  1
  Na  Na150  1  0.617810  0.134154  0.549880  1
  Na  Na151  1  0.617810  0.634154  0.049880  1
  Na  Na152  1  0.617810  0.634154  0.549880  1
  Na  Na153  1  0.119293  0.133746  0.399345  1
  Na  Na154  1  0.119293  0.133746  0.899345  1
  Na  Na155  1  0.119293  0.633745  0.399345  1
  Na  Na156  1  0.119293  0.633745  0.899345  1
  Na  Na157  1  0.619294  0.133746  0.399345  1
  Na  Na158  1  0.619294  0.133746  0.899345  1
  Na  Na159  1  0.619293  0.633745  0.399345  1
  Na  Na160  1  0.619293  0.633745  0.899345  1
  Na  Na161  1  0.117641  0.135163  0.360860  1
  Na  Na162  1  0.117641  0.135163  0.860860  1
  Na  Na163  1  0.117641  0.635163  0.360860  1
  Na  Na164  1  0.117641  0.635163  0.860860  1
  Na  Na165  1  0.617641  0.135163  0.360860  1
  Na  Na166  1  0.617641  0.135163  0.860860  1
  Na  Na167  1  0.617641  0.635163  0.360860  1
  Na  Na168  1  0.617641  0.635163  0.860860  1
  Na  Na169  1  0.196772  0.164924  0.367465  1
  Na  Na170  1  0.196772  0.164924  0.867465  1
  Na  Na171  1  0.196772  0.664924  0.367465  1
  Na  Na172  1  0.196772  0.664924  0.867465  1
  Na  Na173  1  0.696773  0.164924  0.367465  1
  Na  Na174  1  0.696773  0.164924  0.867465  1
  Na  Na175  1  0.696773  0.664924  0.367465  1
  Na  Na176  1  0.696773  0.664924  0.867465  1
  Na  Na177  1  0.204624  0.011400  0.230075  1
  Na  Na178  1  0.204624  0.011400  0.730075  1
  Na  Na179  1  0.204624  0.511401  0.230075  1
  Na  Na180  1  0.204624  0.511401  0.730075  1
  Na  Na181  1  0.704624  0.011400  0.230075  1
  Na  Na182  1  0.704624  0.011400  0.730075  1
  Na  Na183  1  0.704624  0.511401  0.230075  1
  Na  Na184  1  0.704624  0.511401  0.730075  1
  Na  Na185  1  0.119470  0.006299  0.216665  1
  Na  Na186  1  0.119470  0.006299  0.716665  1
  Na  Na187  1  0.119470  0.506298  0.216665  1
  Na  Na188  1  0.119470  0.506298  0.716665  1
  Na  Na189  1  0.619470  0.006299  0.216665  1
  Na  Na190  1  0.619470  0.006299  0.716665  1
  Na  Na191  1  0.619470  0.506298  0.216665  1
  Na  Na192  1  0.619470  0.506298  0.716665  1
  Na  Na193  1  0.119714  0.468053  0.218885  1
  Na  Na194  1  0.119714  0.468053  0.718885  1
  Na  Na195  1  0.119714  0.968053  0.218885  1
  Na  Na196  1  0.119714  0.968053  0.718885  1
  Na  Na197  1  0.619713  0.468053  0.218885  1
  Na  Na198  1  0.619713  0.468053  0.718885  1
  Na  Na199  1  0.619713  0.968053  0.218885  1
  Na  Na200  1  0.619713  0.968053  0.718885  1
  Na  Na201  1  0.118102  0.315861  0.221520  1
  Na  Na202  1  0.118102  0.315861  0.721520  1
  Na  Na203  1  0.118102  0.815861  0.221520  1
  Na  Na204  1  0.118102  0.815861  0.721520  1
  Na  Na205  1  0.618102  0.315861  0.221520  1
  Na  Na206  1  0.618102  0.315861  0.721520  1
  Na  Na207  1  0.618102  0.815861  0.221520  1
  Na  Na208  1  0.618102  0.815861  0.721520  1
  Na  Na209  1  0.197057  0.284384  0.250910  1
  Na  Na210  1  0.197057  0.284384  0.750910  1
  Na  Na211  1  0.197057  0.784384  0.250910  1
  Na  Na212  1  0.197057  0.784384  0.750910  1
  Na  Na213  1  0.697057  0.284384  0.250910  1
  Na  Na214  1  0.697057  0.284384  0.750910  1
  Na  Na215  1  0.697057  0.784384  0.250910  1
  Na  Na216  1  0.697057  0.784384  0.750910  1
  Na  Na217  1  0.117296  0.277226  0.222240  1
  Na  Na218  1  0.117296  0.277226  0.722240  1
  Na  Na219  1  0.117296  0.777226  0.222240  1
  Na  Na220  1  0.117296  0.777226  0.722240  1
  Na  Na221  1  0.617296  0.277226  0.222240  1
  Na  Na222  1  0.617296  0.277226  0.722240  1
  Na  Na223  1  0.617296  0.777226  0.222240  1
  Na  Na224  1  0.617296  0.777226  0.722240  1
  Na  Na225  1  0.359177  0.170050  0.255590  1
  Na  Na226  1  0.359177  0.170050  0.755590  1
  Na  Na227  1  0.359177  0.670050  0.255590  1
  Na  Na228  1  0.359177  0.670050  0.755590  1
  Na  Na229  1  0.859178  0.170050  0.255590  1
  Na  Na230  1  0.859178  0.170050  0.755590  1
  Na  Na231  1  0.859177  0.670050  0.255590  1
  Na  Na232  1  0.859177  0.670050  0.755590  1
  Na  Na233  1  0.351783  0.124177  0.197750  1
  Na  Na234  1  0.351783  0.124177  0.697750  1
  Na  Na235  1  0.351783  0.624177  0.197750  1
  Na  Na236  1  0.351783  0.624177  0.697750  1
  Na  Na237  1  0.851783  0.124177  0.197750  1
  Na  Na238  1  0.851783  0.124177  0.697750  1
  Na  Na239  1  0.851783  0.624177  0.197750  1
  Na  Na240  1  0.851783  0.624177  0.697750  1
  Na  Na241  1  0.460956  0.145386  0.259520  1
  Na  Na242  1  0.460956  0.145386  0.759520  1
  Na  Na243  1  0.460956  0.645386  0.259520  1
  Na  Na244  1  0.460956  0.645386  0.759520  1
  Na  Na245  1  0.960956  0.145386  0.259520  1
  Na  Na246  1  0.960956  0.145386  0.759520  1
  Na  Na247  1  0.960956  0.645386  0.259520  1
  Na  Na248  1  0.960956  0.645386  0.759520  1
  Na  Na249  1  0.457865  0.142177  0.191975  1
  Na  Na250  1  0.457865  0.142177  0.691975  1
  Na  Na251  1  0.457865  0.642177  0.191975  1
  Na  Na252  1  0.457865  0.642177  0.691975  1
  Na  Na253  1  0.957865  0.142177  0.191975  1
  Na  Na254  1  0.957865  0.142177  0.691975  1
  Na  Na255  1  0.957865  0.642177  0.191975  1
  Na  Na256  1  0.957865  0.642177  0.691975  1
  Na  Na257  1  0.298317  0.405007  0.357380  1
  Na  Na258  1  0.298317  0.405007  0.857380  1
  Na  Na259  1  0.298317  0.905007  0.357380  1
  Na  Na260  1  0.298317  0.905007  0.857380  1
  Na  Na261  1  0.798317  0.405007  0.357380  1
  Na  Na262  1  0.798317  0.405007  0.857380  1
  Na  Na263  1  0.798317  0.905007  0.357380  1
  Na  Na264  1  0.798317  0.905007  0.857380  1
  Na  Na265  1  0.384182  0.411473  0.366015  1
  Na  Na266  1  0.384182  0.411473  0.866015  1
  Na  Na267  1  0.384181  0.911473  0.366015  1
  Na  Na268  1  0.384181  0.911473  0.866015  1
  Na  Na269  1  0.884181  0.411473  0.366015  1
  Na  Na270  1  0.884181  0.411473  0.866015  1
  Na  Na271  1  0.884181  0.911473  0.366015  1
  Na  Na272  1  0.884181  0.911473  0.866015  1
  Na  Na273  1  0.382099  0.450113  0.365975  1
  Na  Na274  1  0.382099  0.450113  0.865975  1
  Na  Na275  1  0.382099  0.950113  0.365975  1
  Na  Na276  1  0.382099  0.950113  0.865975  1
  Na  Na277  1  0.882099  0.450113  0.365975  1
  Na  Na278  1  0.882099  0.450113  0.865975  1
  Na  Na279  1  0.882099  0.950113  0.365975  1
  Na  Na280  1  0.882099  0.950113  0.865975  1
  Na  Na281  1  0.380694  0.100599  0.366180  1
  Na  Na282  1  0.380694  0.100599  0.866180  1
  Na  Na283  1  0.380694  0.600599  0.366180  1
  Na  Na284  1  0.380694  0.600599  0.866180  1
  Na  Na285  1  0.880694  0.100599  0.366180  1
  Na  Na286  1  0.880694  0.100599  0.866180  1
  Na  Na287  1  0.880694  0.600599  0.366180  1
  Na  Na288  1  0.880694  0.600599  0.866180  1
  Na  Na289  1  0.382366  0.139089  0.364765  1
  Na  Na290  1  0.382366  0.139089  0.864765  1
  Na  Na291  1  0.382365  0.639089  0.364765  1
  Na  Na292  1  0.382365  0.639089  0.864765  1
  Na  Na293  1  0.882366  0.139089  0.364765  1
  Na  Na294  1  0.882366  0.139089  0.864765  1
  Na  Na295  1  0.882366  0.639089  0.364765  1
  Na  Na296  1  0.882366  0.639089  0.864765  1
  Na  Na297  1  0.303175  0.132594  0.335050  1
  Na  Na298  1  0.303175  0.132594  0.835050  1
  Na  Na299  1  0.303175  0.632594  0.335050  1
  Na  Na300  1  0.303175  0.632594  0.835050  1
  Na  Na301  1  0.803175  0.132594  0.335050  1
  Na  Na302  1  0.803175  0.132594  0.835050  1
  Na  Na303  1  0.803174  0.632594  0.335050  1
  Na  Na304  1  0.803174  0.632594  0.835050  1
  Na  Na305  1  0.295387  0.269917  0.488670  1
  Na  Na306  1  0.295387  0.269917  0.988670  1
  Na  Na307  1  0.295387  0.769917  0.488670  1
  Na  Na308  1  0.295387  0.769917  0.988670  1
  Na  Na309  1  0.795387  0.269917  0.488670  1
  Na  Na310  1  0.795387  0.269917  0.988670  1
  Na  Na311  1  0.795387  0.769917  0.488670  1
  Na  Na312  1  0.795387  0.769917  0.988670  1
  Na  Na313  1  0.380545  0.283248  0.493830  1
  Na  Na314  1  0.380545  0.283248  0.993830  1
  Na  Na315  1  0.380545  0.783248  0.493830  1
  Na  Na316  1  0.380545  0.783248  0.993830  1
  Na  Na317  1  0.880545  0.283248  0.493830  1
  Na  Na318  1  0.880545  0.283248  0.993830  1
  Na  Na319  1  0.880545  0.783248  0.493830  1
  Na  Na320  1  0.880545  0.783248  0.993830  1
  Na  Na321  1  0.380294  0.281061  0.032070  1
  Na  Na322  1  0.380294  0.281061  0.532070  1
  Na  Na323  1  0.380294  0.781061  0.032070  1
  Na  Na324  1  0.380294  0.781061  0.532070  1
  Na  Na325  1  0.880294  0.281061  0.032070  1
  Na  Na326  1  0.880294  0.281061  0.532070  1
  Na  Na327  1  0.880294  0.781061  0.032070  1
  Na  Na328  1  0.880294  0.781061  0.532070  1
  Na  Na329  1  0.381814  0.278656  0.184300  1
  Na  Na330  1  0.381814  0.278656  0.684300  1
  Na  Na331  1  0.381814  0.778656  0.184300  1
  Na  Na332  1  0.381814  0.778656  0.684300  1
  Na  Na333  1  0.881814  0.278656  0.184300  1
  Na  Na334  1  0.881814  0.278656  0.684300  1
  Na  Na335  1  0.881814  0.778656  0.184300  1
  Na  Na336  1  0.881814  0.778656  0.684300  1
  Na  Na337  1  0.302907  0.249229  0.215685  1
  Na  Na338  1  0.302907  0.249229  0.715685  1
  Na  Na339  1  0.302907  0.749229  0.215685  1
  Na  Na340  1  0.302907  0.749229  0.715685  1
  Na  Na341  1  0.802907  0.249229  0.215685  1
  Na  Na342  1  0.802907  0.249229  0.715685  1
  Na  Na343  1  0.802907  0.749229  0.215685  1
  Na  Na344  1  0.802907  0.749229  0.715685  1
  Na  Na345  1  0.382618  0.277935  0.222930  1
  Na  Na346  1  0.382618  0.277935  0.722930  1
  Na  Na347  1  0.382618  0.777935  0.222930  1
  Na  Na348  1  0.382618  0.777935  0.722930  1
  Na  Na349  1  0.882618  0.277935  0.222930  1
  Na  Na350  1  0.882618  0.277935  0.722930  1
  Na  Na351  1  0.882618  0.777935  0.222930  1
  Na  Na352  1  0.882618  0.777935  0.722930  1
  Na  Na353  1  0.140830  0.244413  0.329995  1
  Na  Na354  1  0.140830  0.244413  0.829995  1
  Na  Na355  1  0.140830  0.744413  0.329995  1
  Na  Na356  1  0.140830  0.744413  0.829995  1
  Na  Na357  1  0.640830  0.244413  0.329995  1
  Na  Na358  1  0.640830  0.244413  0.829995  1
  Na  Na359  1  0.640830  0.744413  0.329995  1
  Na  Na360  1  0.640830  0.744413  0.829995  1
  Na  Na361  1  0.148187  0.302241  0.375845  1
  Na  Na362  1  0.148187  0.302241  0.875845  1
  Na  Na363  1  0.148186  0.802241  0.375845  1
  Na  Na364  1  0.148186  0.802241  0.875845  1
  Na  Na365  1  0.648186  0.302241  0.375845  1
  Na  Na366  1  0.648186  0.302241  0.875845  1
  Na  Na367  1  0.648186  0.802241  0.375845  1
  Na  Na368  1  0.648186  0.802241  0.875845  1
  Na  Na369  1  0.039094  0.240459  0.354645  1
  Na  Na370  1  0.039094  0.240459  0.854645  1
  Na  Na371  1  0.039094  0.740460  0.354645  1
  Na  Na372  1  0.039094  0.740460  0.854645  1
  Na  Na373  1  0.539094  0.240459  0.354645  1
  Na  Na374  1  0.539094  0.240459  0.854645  1
  Na  Na375  1  0.539094  0.740460  0.354645  1
  Na  Na376  1  0.539094  0.740460  0.854645  1
  Na  Na377  1  0.042063  0.308015  0.357895  1
  Na  Na378  1  0.042063  0.308015  0.857895  1
  Na  Na379  1  0.042063  0.808015  0.357895  1
  Na  Na380  1  0.042063  0.808015  0.857895  1
  Na  Na381  1  0.542064  0.308015  0.357895  1
  Na  Na382  1  0.542064  0.308015  0.857895  1
  Na  Na383  1  0.542064  0.808015  0.357895  1
  Na  Na384  1  0.542064  0.808015  0.857895  1
  Li  Li385  1  0.498316  0.116986  0.460940  1
  Li  Li386  1  0.498316  0.116986  0.960940  1
  Li  Li387  1  0.498316  0.616986  0.460940  1
  Li  Li388  1  0.498316  0.616986  0.960940  1
  Li  Li389  1  0.998316  0.116986  0.460940  1
  Li  Li390  1  0.998316  0.116986  0.960940  1
  Li  Li391  1  0.998315  0.616986  0.460940  1
  Li  Li392  1  0.998315  0.616986  0.960940  1
  Li  Li393  1  0.495719  0.468809  0.452220  1
  Li  Li394  1  0.495719  0.468809  0.952220  1
  Li  Li395  1  0.495719  0.968809  0.452220  1
  Li  Li396  1  0.495719  0.968809  0.952220  1
  Li  Li397  1  0.995718  0.468809  0.452220  1
  Li  Li398  1  0.995718  0.468809  0.952220  1
  Li  Li399  1  0.995718  0.968809  0.452220  1
  Li  Li400  1  0.995718  0.968809  0.952220  1
  Li  Li401  1  0.001672  0.039095  0.383000  1
  Li  Li402  1  0.001672  0.039095  0.883000  1
  Li  Li403  1  0.001672  0.539096  0.383000  1
  Li  Li404  1  0.001672  0.539096  0.883000  1
  Li  Li405  1  0.501671  0.039095  0.383000  1
  Li  Li406  1  0.501671  0.039095  0.883000  1
  Li  Li407  1  0.501671  0.539096  0.383000  1
  Li  Li408  1  0.501671  0.539096  0.883000  1
  Li  Li409  1  0.004311  0.047757  0.031200  1
  Li  Li410  1  0.004311  0.047757  0.531200  1
  Li  Li411  1  0.004311  0.547757  0.031200  1
  Li  Li412  1  0.004311  0.547757  0.531200  1
  Li  Li413  1  0.504311  0.047757  0.031200  1
  Li  Li414  1  0.504311  0.047757  0.531200  1
  Li  Li415  1  0.504311  0.547757  0.031200  1
  Li  Li416  1  0.504311  0.547757  0.531200  1
  Li  Li417  1  0.155725  0.139448  0.153420  1
  Li  Li418  1  0.155725  0.139448  0.653420  1
  Li  Li419  1  0.155725  0.639448  0.153420  1
  Li  Li420  1  0.155725  0.639448  0.653420  1
  Li  Li421  1  0.655725  0.139448  0.153420  1
  Li  Li422  1  0.655725  0.139448  0.653420  1
  Li  Li423  1  0.655725  0.639448  0.153420  1
  Li  Li424  1  0.655725  0.639448  0.653420  1
  Li  Li425  1  0.156908  0.149108  0.302430  1
  Li  Li426  1  0.156908  0.149108  0.802430  1
  Li  Li427  1  0.156909  0.649107  0.302430  1
  Li  Li428  1  0.156909  0.649107  0.802430  1
  Li  Li429  1  0.656909  0.149108  0.302430  1
  Li  Li430  1  0.656909  0.149108  0.802430  1
  Li  Li431  1  0.656908  0.649107  0.302430  1
  Li  Li432  1  0.656908  0.649107  0.802430  1
  Li  Li433  1  0.161560  0.070353  0.222465  1
  Li  Li434  1  0.161560  0.070353  0.722465  1
  Li  Li435  1  0.161560  0.570353  0.222465  1
  Li  Li436  1  0.161560  0.570353  0.722465  1
  Li  Li437  1  0.661560  0.070353  0.222465  1
  Li  Li438  1  0.661560  0.070353  0.722465  1
  Li  Li439  1  0.661560  0.570353  0.222465  1
  Li  Li440  1  0.661560  0.570353  0.722465  1
  Li  Li441  1  0.158206  0.218954  0.234875  1
  Li  Li442  1  0.158206  0.218954  0.734875  1
  Li  Li443  1  0.158206  0.718954  0.234875  1
  Li  Li444  1  0.158206  0.718954  0.734875  1
  Li  Li445  1  0.658206  0.218954  0.234875  1
  Li  Li446  1  0.658206  0.218954  0.734875  1
  Li  Li447  1  0.658206  0.718954  0.234875  1
  Li  Li448  1  0.658206  0.718954  0.734875  1
  Li  Li449  1  0.344246  0.346583  0.360645  1
  Li  Li450  1  0.344246  0.346583  0.860645  1
  Li  Li451  1  0.344246  0.846584  0.360645  1
  Li  Li452  1  0.344246  0.846584  0.860645  1
  Li  Li453  1  0.844246  0.346583  0.360645  1
  Li  Li454  1  0.844246  0.346583  0.860645  1
  Li  Li455  1  0.844246  0.846584  0.360645  1
  Li  Li456  1  0.844246  0.846584  0.860645  1
  Li  Li457  1  0.343083  0.197589  0.350915  1
  Li  Li458  1  0.343083  0.197589  0.850915  1
  Li  Li459  1  0.343083  0.697589  0.350915  1
  Li  Li460  1  0.343083  0.697589  0.850915  1
  Li  Li461  1  0.843083  0.197589  0.350915  1
  Li  Li462  1  0.843083  0.197589  0.850915  1
  Li  Li463  1  0.843083  0.697589  0.350915  1
  Li  Li464  1  0.843083  0.697589  0.850915  1
  Li  Li465  1  0.338442  0.277505  0.429750  1
  Li  Li466  1  0.338442  0.277505  0.929750  1
  Li  Li467  1  0.338441  0.777505  0.429750  1
  Li  Li468  1  0.338441  0.777505  0.929750  1
  Li  Li469  1  0.838442  0.277505  0.429750  1
  Li  Li470  1  0.838442  0.277505  0.929750  1
  Li  Li471  1  0.838442  0.777505  0.429750  1
  Li  Li472  1  0.838442  0.777505  0.929750  1
  Li  Li473  1  0.341735  0.265199  0.281100  1
  Li  Li474  1  0.341735  0.265199  0.781100  1
  Li  Li475  1  0.341735  0.765199  0.281100  1
  Li  Li476  1  0.341735  0.765199  0.781100  1
  Li  Li477  1  0.841735  0.265199  0.281100  1
  Li  Li478  1  0.841735  0.265199  0.781100  1
  Li  Li479  1  0.841735  0.765199  0.281100  1
  Li  Li480  1  0.841735  0.765199  0.781100  1
  Ca  Ca481  1  0.124232  0.043984  0.458800  1
  Ca  Ca482  1  0.124232  0.043984  0.958800  1
  Ca  Ca483  1  0.124232  0.543984  0.458800  1
  Ca  Ca484  1  0.124232  0.543984  0.958800  1
  Ca  Ca485  1  0.624232  0.043984  0.458800  1
  Ca  Ca486  1  0.624232  0.043984  0.958800  1
  Ca  Ca487  1  0.624232  0.543984  0.458800  1
  Ca  Ca488  1  0.624232  0.543984  0.958800  1
  Ca  Ca489  1  0.375762  0.041232  0.455995  1
  Ca  Ca490  1  0.375762  0.041232  0.955995  1
  Ca  Ca491  1  0.375762  0.541233  0.455995  1
  Ca  Ca492  1  0.375762  0.541233  0.955995  1
  Ca  Ca493  1  0.875762  0.041232  0.455995  1
  Ca  Ca494  1  0.875762  0.041232  0.955995  1
  Ca  Ca495  1  0.875762  0.541233  0.455995  1
  Ca  Ca496  1  0.875762  0.541233  0.955995  1
  Ca  Ca497  1  0.281803  0.148321  0.228465  1
  Ca  Ca498  1  0.281803  0.148321  0.728465  1
  Ca  Ca499  1  0.281803  0.648321  0.228465  1
  Ca  Ca500  1  0.281803  0.648321  0.728465  1
  Ca  Ca501  1  0.781802  0.148321  0.228465  1
  Ca  Ca502  1  0.781802  0.148321  0.728465  1
  Ca  Ca503  1  0.781802  0.648321  0.228465  1
  Ca  Ca504  1  0.781802  0.648321  0.728465  1
  Ca  Ca505  1  0.033145  0.141697  0.225415  1
  Ca  Ca506  1  0.033145  0.141697  0.725415  1
  Ca  Ca507  1  0.033145  0.641697  0.225415  1
  Ca  Ca508  1  0.033145  0.641697  0.725415  1
  Ca  Ca509  1  0.533145  0.141697  0.225415  1
  Ca  Ca510  1  0.533145  0.141697  0.725415  1
  Ca  Ca511  1  0.533145  0.641697  0.225415  1
  Ca  Ca512  1  0.533145  0.641697  0.725415  1
  Ca  Ca513  1  0.218185  0.271562  0.351715  1
  Ca  Ca514  1  0.218185  0.271562  0.851715  1
  Ca  Ca515  1  0.218185  0.771562  0.351715  1
  Ca  Ca516  1  0.218185  0.771562  0.851715  1
  Ca  Ca517  1  0.718186  0.271562  0.351715  1
  Ca  Ca518  1  0.718186  0.271562  0.851715  1
  Ca  Ca519  1  0.718186  0.771562  0.351715  1
  Ca  Ca520  1  0.718186  0.771562  0.851715  1
  Ca  Ca521  1  0.466849  0.274561  0.358410  1
  Ca  Ca522  1  0.466849  0.274561  0.858410  1
  Ca  Ca523  1  0.466849  0.774561  0.358410  1
  Ca  Ca524  1  0.466849  0.774561  0.858410  1
  Ca  Ca525  1  0.966849  0.274561  0.358410  1
  Ca  Ca526  1  0.966849  0.274561  0.858410  1
  Ca  Ca527  1  0.966849  0.774561  0.358410  1
  Ca  Ca528  1  0.966849  0.774561  0.858410  1
  Mg  Mg529  1  0.091947  0.240913  0.473180  1
  Mg  Mg530  1  0.091947  0.240913  0.973180  1
  Mg  Mg531  1  0.091947  0.740913  0.473180  1
  Mg  Mg532  1  0.091947  0.740913  0.973180  1
  Mg  Mg533  1  0.591947  0.240913  0.473180  1
  Mg  Mg534  1  0.591947  0.240913  0.973180  1
  Mg  Mg535  1  0.591947  0.740913  0.473180  1
  Mg  Mg536  1  0.591947  0.740913  0.973180  1
  Mg  Mg537  1  0.091252  0.356083  0.469200  1
  Mg  Mg538  1  0.091252  0.356083  0.969200  1
  Mg  Mg539  1  0.091252  0.856084  0.469200  1
  Mg  Mg540  1  0.091252  0.856084  0.969200  1
  Mg  Mg541  1  0.591252  0.356083  0.469200  1
  Mg  Mg542  1  0.591252  0.356083  0.969200  1
  Mg  Mg543  1  0.591252  0.856084  0.469200  1
  Mg  Mg544  1  0.591252  0.856084  0.969200  1
  Mg  Mg545  1  0.408085  0.026847  0.258985  1
  Mg  Mg546  1  0.408085  0.026847  0.758985  1
  Mg  Mg547  1  0.408085  0.526847  0.258985  1
  Mg  Mg548  1  0.408085  0.526847  0.758985  1
  Mg  Mg549  1  0.908085  0.026847  0.258985  1
  Mg  Mg550  1  0.908085  0.026847  0.758985  1
  Mg  Mg551  1  0.908085  0.526847  0.258985  1
  Mg  Mg552  1  0.908085  0.526847  0.758985  1
  Mg  Mg553  1  0.408847  0.030754  0.143845  1
  Mg  Mg554  1  0.408847  0.030754  0.643845  1
  Mg  Mg555  1  0.408847  0.530754  0.143845  1
  Mg  Mg556  1  0.408847  0.530754  0.643845  1
  Mg  Mg557  1  0.908847  0.030754  0.143845  1
  Mg  Mg558  1  0.908847  0.030754  0.643845  1
  Mg  Mg559  1  0.908847  0.530754  0.143845  1
  Mg  Mg560  1  0.908847  0.530754  0.643845  1
  Mg  Mg561  1  0.252207  0.147899  0.039150  1
  Mg  Mg562  1  0.252207  0.147899  0.539150  1
  Mg  Mg563  1  0.252207  0.647899  0.039150  1
  Mg  Mg564  1  0.252207  0.647899  0.539150  1
  Mg  Mg565  1  0.752207  0.147899  0.039150  1
  Mg  Mg566  1  0.752207  0.147899  0.539150  1
  Mg  Mg567  1  0.752207  0.647899  0.039150  1
  Mg  Mg568  1  0.752207  0.647899  0.539150  1
  Mg  Mg569  1  0.242863  0.180197  0.429995  1
  Mg  Mg570  1  0.242863  0.180197  0.929995  1
  Mg  Mg571  1  0.242862  0.680197  0.429995  1
  Mg  Mg572  1  0.242862  0.680197  0.929995  1
  Mg  Mg573  1  0.742862  0.180197  0.429995  1
  Mg  Mg574  1  0.742862  0.180197  0.929995  1
  Mg  Mg575  1  0.742862  0.680197  0.429995  1
  Mg  Mg576  1  0.742862  0.680197  0.929995  1
  Mg  Mg577  1  0.251903  0.455242  0.240705  1
  Mg  Mg578  1  0.251903  0.455242  0.740705  1
  Mg  Mg579  1  0.251903  0.955242  0.240705  1
  Mg  Mg580  1  0.251903  0.955242  0.740705  1
  Mg  Mg581  1  0.751903  0.455242  0.240705  1
  Mg  Mg582  1  0.751903  0.455242  0.740705  1
  Mg  Mg583  1  0.751903  0.955242  0.240705  1
  Mg  Mg584  1  0.751903  0.955242  0.740705  1
  Mg  Mg585  1  0.242318  0.347316  0.265915  1
  Mg  Mg586  1  0.242318  0.347316  0.765915  1
  Mg  Mg587  1  0.242318  0.847317  0.265915  1
  Mg  Mg588  1  0.242318  0.847317  0.765915  1
  Mg  Mg589  1  0.742318  0.347316  0.265915  1
  Mg  Mg590  1  0.742318  0.347316  0.765915  1
  Mg  Mg591  1  0.742318  0.847317  0.265915  1
  Mg  Mg592  1  0.742318  0.847317  0.765915  1
  Mg  Mg593  1  0.247695  0.460887  0.352130  1
  Mg  Mg594  1  0.247695  0.460887  0.852130  1
  Mg  Mg595  1  0.247695  0.960887  0.352130  1
  Mg  Mg596  1  0.247695  0.960887  0.852130  1
  Mg  Mg597  1  0.747695  0.460887  0.352130  1
  Mg  Mg598  1  0.747695  0.460887  0.852130  1
  Mg  Mg599  1  0.747695  0.960887  0.352130  1
  Mg  Mg600  1  0.747695  0.960887  0.852130  1
  Mg  Mg601  1  0.257001  0.070123  0.319840  1
  Mg  Mg602  1  0.257001  0.070123  0.819840  1
  Mg  Mg603  1  0.257001  0.570122  0.319840  1
  Mg  Mg604  1  0.257001  0.570122  0.819840  1
  Mg  Mg605  1  0.757001  0.070123  0.319840  1
  Mg  Mg606  1  0.757001  0.070123  0.819840  1
  Mg  Mg607  1  0.757001  0.570122  0.319840  1
  Mg  Mg608  1  0.757001  0.570122  0.819840  1
  Mg  Mg609  1  0.248097  0.259383  0.044790  1
  Mg  Mg610  1  0.248097  0.259383  0.544790  1
  Mg  Mg611  1  0.248097  0.759383  0.044790  1
  Mg  Mg612  1  0.248097  0.759383  0.544790  1
  Mg  Mg613  1  0.748097  0.259383  0.044790  1
  Mg  Mg614  1  0.748097  0.259383  0.544790  1
  Mg  Mg615  1  0.748097  0.759383  0.044790  1
  Mg  Mg616  1  0.748097  0.759383  0.544790  1
  Mg  Mg617  1  0.257665  0.234212  0.152725  1
  Mg  Mg618  1  0.257665  0.234212  0.652725  1
  Mg  Mg619  1  0.257665  0.734212  0.152725  1
  Mg  Mg620  1  0.257665  0.734212  0.652725  1
  Mg  Mg621  1  0.757664  0.234212  0.152725  1
  Mg  Mg622  1  0.757664  0.234212  0.652725  1
  Mg  Mg623  1  0.757665  0.734212  0.152725  1
  Mg  Mg624  1  0.757665  0.734212  0.652725  1
  Sc  Sc625  1  0.035217  0.487131  0.451495  1
  Sc  Sc626  1  0.035217  0.487131  0.951495  1
  Sc  Sc627  1  0.035218  0.987131  0.451495  1
  Sc  Sc628  1  0.035218  0.987131  0.951495  1
  Sc  Sc629  1  0.535218  0.487131  0.451495  1
  Sc  Sc630  1  0.535218  0.487131  0.951495  1
  Sc  Sc631  1  0.535218  0.987131  0.451495  1
  Sc  Sc632  1  0.535218  0.987131  0.951495  1
  Sc  Sc633  1  0.454556  0.482886  0.453065  1
  Sc  Sc634  1  0.454556  0.482886  0.953065  1
  Sc  Sc635  1  0.454556  0.982886  0.453065  1
  Sc  Sc636  1  0.454556  0.982886  0.953065  1
  Sc  Sc637  1  0.954556  0.482886  0.453065  1
  Sc  Sc638  1  0.954556  0.482886  0.953065  1
  Sc  Sc639  1  0.954556  0.982886  0.453065  1
  Sc  Sc640  1  0.954556  0.982886  0.953065  1
  Sc  Sc641  1  0.458253  0.098734  0.454650  1
  Sc  Sc642  1  0.458253  0.098734  0.954650  1
  Sc  Sc643  1  0.458253  0.598734  0.454650  1
  Sc  Sc644  1  0.458253  0.598734  0.954650  1
  Sc  Sc645  1  0.958253  0.098734  0.454650  1
  Sc  Sc646  1  0.958253  0.098734  0.954650  1
  Sc  Sc647  1  0.958253  0.598734  0.454650  1
  Sc  Sc648  1  0.958253  0.598734  0.954650  1
  Sc  Sc649  1  0.037996  0.102674  0.467615  1
  Sc  Sc650  1  0.037996  0.102674  0.967615  1
  Sc  Sc651  1  0.037996  0.602674  0.467615  1
  Sc  Sc652  1  0.037996  0.602674  0.967615  1
  Sc  Sc653  1  0.537996  0.102674  0.467615  1
  Sc  Sc654  1  0.537996  0.102674  0.967615  1
  Sc  Sc655  1  0.537996  0.602674  0.467615  1
  Sc  Sc656  1  0.537996  0.602674  0.967615  1
  Sc  Sc657  1  0.464797  0.048502  0.012865  1
  Sc  Sc658  1  0.464797  0.048502  0.512865  1
  Sc  Sc659  1  0.464797  0.548501  0.012865  1
  Sc  Sc660  1  0.464797  0.548501  0.512865  1
  Sc  Sc661  1  0.964796  0.048502  0.012865  1
  Sc  Sc662  1  0.964796  0.048502  0.512865  1
  Sc  Sc663  1  0.964796  0.548501  0.012865  1
  Sc  Sc664  1  0.964796  0.548501  0.512865  1
  Sc  Sc665  1  0.045464  0.046904  0.017145  1
  Sc  Sc666  1  0.045464  0.046904  0.517145  1
  Sc  Sc667  1  0.045464  0.546904  0.017145  1
  Sc  Sc668  1  0.045464  0.546904  0.517145  1
  Sc  Sc669  1  0.545463  0.046904  0.017145  1
  Sc  Sc670  1  0.545463  0.046904  0.517145  1
  Sc  Sc671  1  0.545463  0.546904  0.017145  1
  Sc  Sc672  1  0.545463  0.546904  0.517145  1
  Sc  Sc673  1  0.041735  0.045358  0.401280  1
  Sc  Sc674  1  0.041735  0.045358  0.901280  1
  Sc  Sc675  1  0.041735  0.545358  0.401280  1
  Sc  Sc676  1  0.041735  0.545358  0.901280  1
  Sc  Sc677  1  0.541736  0.045358  0.401280  1
  Sc  Sc678  1  0.541736  0.045358  0.901280  1
  Sc  Sc679  1  0.541735  0.545358  0.401280  1
  Sc  Sc680  1  0.541735  0.545358  0.901280  1
  Sc  Sc681  1  0.461995  0.032451  0.397285  1
  Sc  Sc682  1  0.461995  0.032451  0.897285  1
  Sc  Sc683  1  0.461995  0.532451  0.397285  1
  Sc  Sc684  1  0.461995  0.532451  0.897285  1
  Sc  Sc685  1  0.961995  0.032451  0.397285  1
  Sc  Sc686  1  0.961995  0.032451  0.897285  1
  Sc  Sc687  1  0.961995  0.532451  0.397285  1
  Sc  Sc688  1  0.961995  0.532451  0.897285  1
  Sc  Sc689  1  0.195531  0.142279  0.172110  1
  Sc  Sc690  1  0.195531  0.142279  0.672110  1
  Sc  Sc691  1  0.195531  0.642279  0.172110  1
  Sc  Sc692  1  0.195531  0.642279  0.672110  1
  Sc  Sc693  1  0.695531  0.142279  0.172110  1
  Sc  Sc694  1  0.695531  0.142279  0.672110  1
  Sc  Sc695  1  0.695531  0.642279  0.172110  1
  Sc  Sc696  1  0.695531  0.642279  0.672110  1
  Sc  Sc697  1  0.114722  0.137594  0.167290  1
  Sc  Sc698  1  0.114722  0.137594  0.667290  1
  Sc  Sc699  1  0.114722  0.637594  0.167290  1
  Sc  Sc700  1  0.114722  0.637594  0.667290  1
  Sc  Sc701  1  0.614722  0.137594  0.167290  1
  Sc  Sc702  1  0.614722  0.137594  0.667290  1
  Sc  Sc703  1  0.614722  0.637594  0.167290  1
  Sc  Sc704  1  0.614722  0.637594  0.667290  1
  Sc  Sc705  1  0.197456  0.151707  0.287910  1
  Sc  Sc706  1  0.197456  0.151707  0.787910  1
  Sc  Sc707  1  0.197456  0.651707  0.287910  1
  Sc  Sc708  1  0.197456  0.651707  0.787910  1
  Sc  Sc709  1  0.697456  0.151707  0.287910  1
  Sc  Sc710  1  0.697456  0.151707  0.787910  1
  Sc  Sc711  1  0.697456  0.651707  0.287910  1
  Sc  Sc712  1  0.697456  0.651707  0.787910  1
  Sc  Sc713  1  0.116659  0.145815  0.284360  1
  Sc  Sc714  1  0.116659  0.145815  0.784360  1
  Sc  Sc715  1  0.116659  0.645815  0.284360  1
  Sc  Sc716  1  0.116659  0.645815  0.784360  1
  Sc  Sc717  1  0.616660  0.145815  0.284360  1
  Sc  Sc718  1  0.616660  0.145815  0.784360  1
  Sc  Sc719  1  0.616659  0.645815  0.284360  1
  Sc  Sc720  1  0.616659  0.645815  0.784360  1
  Sc  Sc721  1  0.201643  0.088608  0.225310  1
  Sc  Sc722  1  0.201643  0.088608  0.725310  1
  Sc  Sc723  1  0.201643  0.588608  0.225310  1
  Sc  Sc724  1  0.201643  0.588608  0.725310  1
  Sc  Sc725  1  0.701643  0.088608  0.225310  1
  Sc  Sc726  1  0.701643  0.088608  0.725310  1
  Sc  Sc727  1  0.701643  0.588608  0.225310  1
  Sc  Sc728  1  0.701643  0.588608  0.725310  1
  Sc  Sc729  1  0.120818  0.084729  0.220200  1
  Sc  Sc730  1  0.120818  0.084729  0.720200  1
  Sc  Sc731  1  0.120818  0.584728  0.220200  1
  Sc  Sc732  1  0.120818  0.584728  0.720200  1
  Sc  Sc733  1  0.620818  0.084729  0.220200  1
  Sc  Sc734  1  0.620818  0.084729  0.720200  1
  Sc  Sc735  1  0.620819  0.584728  0.220200  1
  Sc  Sc736  1  0.620819  0.584728  0.720200  1
  Sc  Sc737  1  0.199129  0.204813  0.237270  1
  Sc  Sc738  1  0.199129  0.204813  0.737270  1
  Sc  Sc739  1  0.199129  0.704813  0.237270  1
  Sc  Sc740  1  0.199129  0.704813  0.737270  1
  Sc  Sc741  1  0.699128  0.204813  0.237270  1
  Sc  Sc742  1  0.699128  0.204813  0.737270  1
  Sc  Sc743  1  0.699129  0.704813  0.237270  1
  Sc  Sc744  1  0.699129  0.704813  0.737270  1
  Sc  Sc745  1  0.118439  0.200271  0.231280  1
  Sc  Sc746  1  0.118439  0.200271  0.731280  1
  Sc  Sc747  1  0.118440  0.700272  0.231280  1
  Sc  Sc748  1  0.118440  0.700272  0.731280  1
  Sc  Sc749  1  0.618440  0.200271  0.231280  1
  Sc  Sc750  1  0.618440  0.200271  0.731280  1
  Sc  Sc751  1  0.618439  0.700272  0.231280  1
  Sc  Sc752  1  0.618439  0.700272  0.731280  1
  Sc  Sc753  1  0.304456  0.327902  0.357790  1
  Sc  Sc754  1  0.304456  0.327902  0.857790  1
  Sc  Sc755  1  0.304456  0.827902  0.357790  1
  Sc  Sc756  1  0.304456  0.827902  0.857790  1
  Sc  Sc757  1  0.804456  0.327902  0.357790  1
  Sc  Sc758  1  0.804456  0.327902  0.857790  1
  Sc  Sc759  1  0.804456  0.827902  0.357790  1
  Sc  Sc760  1  0.804456  0.827902  0.857790  1
  Sc  Sc761  1  0.385266  0.332695  0.362490  1
  Sc  Sc762  1  0.385266  0.332695  0.862490  1
  Sc  Sc763  1  0.385266  0.832695  0.362490  1
  Sc  Sc764  1  0.385266  0.832695  0.862490  1
  Sc  Sc765  1  0.885266  0.332695  0.362490  1
  Sc  Sc766  1  0.885266  0.332695  0.862490  1
  Sc  Sc767  1  0.885266  0.832695  0.362490  1
  Sc  Sc768  1  0.885266  0.832695  0.862490  1
  Sc  Sc769  1  0.302529  0.212139  0.348300  1
  Sc  Sc770  1  0.302529  0.212139  0.848300  1
  Sc  Sc771  1  0.302529  0.712139  0.348300  1
  Sc  Sc772  1  0.302529  0.712139  0.848300  1
  Sc  Sc773  1  0.802529  0.212139  0.348300  1
  Sc  Sc774  1  0.802529  0.212139  0.848300  1
  Sc  Sc775  1  0.802529  0.712139  0.348300  1
  Sc  Sc776  1  0.802529  0.712139  0.848300  1
  Sc  Sc777  1  0.383325  0.215645  0.354310  1
  Sc  Sc778  1  0.383325  0.215645  0.854310  1
  Sc  Sc779  1  0.383325  0.715645  0.354310  1
  Sc  Sc780  1  0.383325  0.715645  0.854310  1
  Sc  Sc781  1  0.883325  0.215645  0.354310  1
  Sc  Sc782  1  0.883325  0.215645  0.854310  1
  Sc  Sc783  1  0.883325  0.715645  0.354310  1
  Sc  Sc784  1  0.883325  0.715645  0.854310  1
  Sc  Sc785  1  0.298363  0.274682  0.411465  1
  Sc  Sc786  1  0.298363  0.274682  0.911465  1
  Sc  Sc787  1  0.298364  0.774682  0.411465  1
  Sc  Sc788  1  0.298364  0.774682  0.911465  1
  Sc  Sc789  1  0.798364  0.274682  0.411465  1
  Sc  Sc790  1  0.798364  0.274682  0.911465  1
  Sc  Sc791  1  0.798364  0.774682  0.411465  1
  Sc  Sc792  1  0.798364  0.774682  0.911465  1
  Sc  Sc793  1  0.379184  0.279789  0.415400  1
  Sc  Sc794  1  0.379184  0.279789  0.915400  1
  Sc  Sc795  1  0.379184  0.779789  0.415400  1
  Sc  Sc796  1  0.379184  0.779789  0.915400  1
  Sc  Sc797  1  0.879184  0.279789  0.415400  1
  Sc  Sc798  1  0.879184  0.279789  0.915400  1
  Sc  Sc799  1  0.879183  0.779789  0.415400  1
  Sc  Sc800  1  0.879183  0.779789  0.915400  1
  Sc  Sc801  1  0.300804  0.262791  0.295225  1
  Sc  Sc802  1  0.300804  0.262791  0.795225  1
  Sc  Sc803  1  0.300804  0.762791  0.295225  1
  Sc  Sc804  1  0.300804  0.762791  0.795225  1
  Sc  Sc805  1  0.800803  0.262791  0.295225  1
  Sc  Sc806  1  0.800803  0.262791  0.795225  1
  Sc  Sc807  1  0.800803  0.762791  0.295225  1
  Sc  Sc808  1  0.800803  0.762791  0.795225  1
  Sc  Sc809  1  0.381493  0.268732  0.299855  1
  Sc  Sc810  1  0.381493  0.268732  0.799855  1
  Sc  Sc811  1  0.381493  0.768732  0.299855  1
  Sc  Sc812  1  0.381493  0.768732  0.799855  1
  Sc  Sc813  1  0.881493  0.268732  0.299855  1
  Sc  Sc814  1  0.881493  0.268732  0.799855  1
  Sc  Sc815  1  0.881493  0.768732  0.299855  1
  Sc  Sc816  1  0.881493  0.768732  0.799855  1
  Ti  Ti817  1  0.050331  0.045145  0.459325  1
  Ti  Ti818  1  0.050331  0.045145  0.959325  1
  Ti  Ti819  1  0.050331  0.545145  0.459325  1
  Ti  Ti820  1  0.050331  0.545145  0.959325  1
  Ti  Ti821  1  0.550331  0.045145  0.459325  1
  Ti  Ti822  1  0.550331  0.045145  0.959325  1
  Ti  Ti823  1  0.550331  0.545145  0.459325  1
  Ti  Ti824  1  0.550331  0.545145  0.959325  1
  Ti  Ti825  1  0.449666  0.040704  0.454840  1
  Ti  Ti826  1  0.449666  0.040704  0.954840  1
  Ti  Ti827  1  0.449666  0.540704  0.454840  1
  Ti  Ti828  1  0.449666  0.540704  0.954840  1
  Ti  Ti829  1  0.949666  0.040704  0.454840  1
  Ti  Ti830  1  0.949666  0.040704  0.954840  1
  Ti  Ti831  1  0.949666  0.540704  0.454840  1
  Ti  Ti832  1  0.949666  0.540704  0.954840  1
  Ti  Ti833  1  0.208386  0.146937  0.229875  1
  Ti  Ti834  1  0.208386  0.146937  0.729875  1
  Ti  Ti835  1  0.208386  0.646938  0.229875  1
  Ti  Ti836  1  0.208386  0.646938  0.729875  1
  Ti  Ti837  1  0.708386  0.146937  0.229875  1
  Ti  Ti838  1  0.708386  0.146937  0.729875  1
  Ti  Ti839  1  0.708386  0.646938  0.229875  1
  Ti  Ti840  1  0.708386  0.646938  0.729875  1
  Ti  Ti841  1  0.106633  0.141823  0.225180  1
  Ti  Ti842  1  0.106633  0.141823  0.725180  1
  Ti  Ti843  1  0.106633  0.641823  0.225180  1
  Ti  Ti844  1  0.106633  0.641823  0.725180  1
  Ti  Ti845  1  0.606633  0.141823  0.225180  1
  Ti  Ti846  1  0.606633  0.141823  0.725180  1
  Ti  Ti847  1  0.606633  0.641823  0.225180  1
  Ti  Ti848  1  0.606633  0.641823  0.725180  1
  Ti  Ti849  1  0.291602  0.270145  0.353095  1
  Ti  Ti850  1  0.291602  0.270145  0.853095  1
  Ti  Ti851  1  0.291602  0.770145  0.353095  1
  Ti  Ti852  1  0.291602  0.770145  0.853095  1
  Ti  Ti853  1  0.791602  0.270145  0.353095  1
  Ti  Ti854  1  0.791602  0.270145  0.853095  1
  Ti  Ti855  1  0.791602  0.770145  0.353095  1
  Ti  Ti856  1  0.791602  0.770145  0.853095  1
  Ti  Ti857  1  0.393362  0.274815  0.358350  1
  Ti  Ti858  1  0.393362  0.274815  0.858350  1
  Ti  Ti859  1  0.393362  0.774815  0.358350  1
  Ti  Ti860  1  0.393362  0.774815  0.858350  1
  Ti  Ti861  1  0.893362  0.274815  0.358350  1
  Ti  Ti862  1  0.893362  0.274815  0.858350  1
  Ti  Ti863  1  0.893362  0.774815  0.358350  1
  Ti  Ti864  1  0.893362  0.774815  0.858350  1
  Be  Be865  1  0.499356  0.158611  0.459730  1
  Be  Be866  1  0.499356  0.158611  0.959730  1
  Be  Be867  1  0.499356  0.658611  0.459730  1
  Be  Be868  1  0.499356  0.658611  0.959730  1
  Be  Be869  1  0.999356  0.158611  0.459730  1
  Be  Be870  1  0.999356  0.158611  0.959730  1
  Be  Be871  1  0.999356  0.658611  0.459730  1
  Be  Be872  1  0.999356  0.658611  0.959730  1
  Be  Be873  1  0.045338  0.218637  0.465470  1
  Be  Be874  1  0.045338  0.218637  0.965470  1
  Be  Be875  1  0.045338  0.718637  0.465470  1
  Be  Be876  1  0.045338  0.718637  0.965470  1
  Be  Be877  1  0.545338  0.218637  0.465470  1
  Be  Be878  1  0.545338  0.218637  0.965470  1
  Be  Be879  1  0.545338  0.718637  0.465470  1
  Be  Be880  1  0.545338  0.718637  0.965470  1
  Be  Be881  1  0.003215  0.236339  0.455870  1
  Be  Be882  1  0.003215  0.236339  0.955870  1
  Be  Be883  1  0.003215  0.736339  0.455870  1
  Be  Be884  1  0.003215  0.736339  0.955870  1
  Be  Be885  1  0.503214  0.236339  0.455870  1
  Be  Be886  1  0.503214  0.236339  0.955870  1
  Be  Be887  1  0.503214  0.736339  0.455870  1
  Be  Be888  1  0.503214  0.736339  0.955870  1
  Be  Be889  1  0.002237  0.349003  0.453975  1
  Be  Be890  1  0.002237  0.349003  0.953975  1
  Be  Be891  1  0.002237  0.849003  0.453975  1
  Be  Be892  1  0.002237  0.849003  0.953975  1
  Be  Be893  1  0.502237  0.349003  0.453975  1
  Be  Be894  1  0.502237  0.349003  0.953975  1
  Be  Be895  1  0.502237  0.849003  0.453975  1
  Be  Be896  1  0.502237  0.849003  0.953975  1
  Be  Be897  1  0.044592  0.372483  0.460270  1
  Be  Be898  1  0.044592  0.372483  0.960270  1
  Be  Be899  1  0.044592  0.872483  0.460270  1
  Be  Be900  1  0.044592  0.872483  0.960270  1
  Be  Be901  1  0.544592  0.372483  0.460270  1
  Be  Be902  1  0.544592  0.372483  0.960270  1
  Be  Be903  1  0.544592  0.872483  0.460270  1
  Be  Be904  1  0.544592  0.872483  0.960270  1
  Be  Be905  1  0.497777  0.427020  0.452350  1
  Be  Be906  1  0.497777  0.427020  0.952350  1
  Be  Be907  1  0.497777  0.927020  0.452350  1
  Be  Be908  1  0.497777  0.927020  0.952350  1
  Be  Be909  1  0.997777  0.427020  0.452350  1
  Be  Be910  1  0.997777  0.427020  0.952350  1
  Be  Be911  1  0.997777  0.927020  0.452350  1
  Be  Be912  1  0.997777  0.927020  0.952350  1
  Be  Be913  1  0.223694  0.042486  0.458085  1
  Be  Be914  1  0.223694  0.042486  0.958085  1
  Be  Be915  1  0.223694  0.542486  0.458085  1
  Be  Be916  1  0.223694  0.542486  0.958085  1
  Be  Be917  1  0.723694  0.042486  0.458085  1
  Be  Be918  1  0.723694  0.042486  0.958085  1
  Be  Be919  1  0.723694  0.542486  0.458085  1
  Be  Be920  1  0.723694  0.542486  0.958085  1
  Be  Be921  1  0.000642  0.040292  0.341375  1
  Be  Be922  1  0.000642  0.040292  0.841375  1
  Be  Be923  1  0.000642  0.540292  0.341375  1
  Be  Be924  1  0.000642  0.540292  0.841375  1
  Be  Be925  1  0.500642  0.040292  0.341375  1
  Be  Be926  1  0.500642  0.040292  0.841375  1
  Be  Be927  1  0.500642  0.540292  0.341375  1
  Be  Be928  1  0.500642  0.540292  0.841375  1
  Be  Be929  1  0.454688  0.034544  0.281300  1
  Be  Be930  1  0.454688  0.034544  0.781300  1
  Be  Be931  1  0.454688  0.534544  0.281300  1
  Be  Be932  1  0.454688  0.534544  0.781300  1
  Be  Be933  1  0.954688  0.034544  0.281300  1
  Be  Be934  1  0.954688  0.034544  0.781300  1
  Be  Be935  1  0.954688  0.534544  0.281300  1
  Be  Be936  1  0.954688  0.534544  0.781300  1
  Be  Be937  1  0.496815  0.044109  0.263640  1
  Be  Be938  1  0.496815  0.044109  0.763640  1
  Be  Be939  1  0.496815  0.544109  0.263640  1
  Be  Be940  1  0.496815  0.544109  0.763640  1
  Be  Be941  1  0.996815  0.044109  0.263640  1
  Be  Be942  1  0.996815  0.044109  0.763640  1
  Be  Be943  1  0.996815  0.544109  0.263640  1
  Be  Be944  1  0.996815  0.544109  0.763640  1
  Be  Be945  1  0.497841  0.046021  0.150995  1
  Be  Be946  1  0.497841  0.046021  0.650995  1
  Be  Be947  1  0.497841  0.546021  0.150995  1
  Be  Be948  1  0.497841  0.546021  0.650995  1
  Be  Be949  1  0.997841  0.046021  0.150995  1
  Be  Be950  1  0.997841  0.046021  0.650995  1
  Be  Be951  1  0.997841  0.546021  0.150995  1
  Be  Be952  1  0.997841  0.546021  0.650995  1
  Be  Be953  1  0.455489  0.039698  0.127485  1
  Be  Be954  1  0.455489  0.039698  0.627485  1
  Be  Be955  1  0.455489  0.539698  0.127485  1
  Be  Be956  1  0.455489  0.539698  0.627485  1
  Be  Be957  1  0.955489  0.039698  0.127485  1
  Be  Be958  1  0.955489  0.039698  0.627485  1
  Be  Be959  1  0.955489  0.539698  0.127485  1
  Be  Be960  1  0.955489  0.539698  0.627485  1
  Be  Be961  1  0.002273  0.047625  0.072985  1
  Be  Be962  1  0.002273  0.047625  0.572985  1
  Be  Be963  1  0.002273  0.547625  0.072985  1
  Be  Be964  1  0.002273  0.547625  0.572985  1
  Be  Be965  1  0.502273  0.047625  0.072985  1
  Be  Be966  1  0.502273  0.047625  0.572985  1
  Be  Be967  1  0.502273  0.547625  0.072985  1
  Be  Be968  1  0.502273  0.547625  0.572985  1
  Be  Be969  1  0.276299  0.041938  0.457525  1
  Be  Be970  1  0.276299  0.041938  0.957525  1
  Be  Be971  1  0.276299  0.541938  0.457525  1
  Be  Be972  1  0.276299  0.541938  0.957525  1
  Be  Be973  1  0.776299  0.041938  0.457525  1
  Be  Be974  1  0.776299  0.041938  0.957525  1
  Be  Be975  1  0.776299  0.541938  0.457525  1
  Be  Be976  1  0.776299  0.541938  0.957525  1
  Be  Be977  1  0.157641  0.138571  0.111520  1
  Be  Be978  1  0.157641  0.138571  0.611520  1
  Be  Be979  1  0.157641  0.638571  0.111520  1
  Be  Be980  1  0.157641  0.638571  0.611520  1
  Be  Be981  1  0.657641  0.138571  0.111520  1
  Be  Be982  1  0.657641  0.138571  0.611520  1
  Be  Be983  1  0.657641  0.638571  0.111520  1
  Be  Be984  1  0.657641  0.638571  0.611520  1
  Be  Be985  1  0.204858  0.143399  0.056435  1
  Be  Be986  1  0.204858  0.143399  0.556435  1
  Be  Be987  1  0.204858  0.643399  0.056435  1
  Be  Be988  1  0.204858  0.643399  0.556435  1
  Be  Be989  1  0.704858  0.143399  0.056435  1
  Be  Be990  1  0.704858  0.143399  0.556435  1
  Be  Be991  1  0.704858  0.643399  0.056435  1
  Be  Be992  1  0.704858  0.643399  0.556435  1
  Be  Be993  1  0.162012  0.139460  0.033550  1
  Be  Be994  1  0.162012  0.139460  0.533550  1
  Be  Be995  1  0.162012  0.639460  0.033550  1
  Be  Be996  1  0.162012  0.639460  0.533550  1
  Be  Be997  1  0.662012  0.139460  0.033550  1
  Be  Be998  1  0.662012  0.139460  0.533550  1
  Be  Be999  1  0.662012  0.639460  0.033550  1
  Be  Be1000  1  0.662012  0.639460  0.533550  1
  Be  Be1001  1  0.160255  0.147601  0.422330  1
  Be  Be1002  1  0.160255  0.147601  0.922330  1
  Be  Be1003  1  0.160255  0.647601  0.422330  1
  Be  Be1004  1  0.160255  0.647601  0.922330  1
  Be  Be1005  1  0.660255  0.147601  0.422330  1
  Be  Be1006  1  0.660255  0.147601  0.922330  1
  Be  Be1007  1  0.660255  0.647601  0.422330  1
  Be  Be1008  1  0.660255  0.647601  0.922330  1
  Be  Be1009  1  0.199368  0.164234  0.406235  1
  Be  Be1010  1  0.199368  0.164234  0.906235  1
  Be  Be1011  1  0.199368  0.664234  0.406235  1
  Be  Be1012  1  0.199368  0.664234  0.906235  1
  Be  Be1013  1  0.699368  0.164234  0.406235  1
  Be  Be1014  1  0.699368  0.164234  0.906235  1
  Be  Be1015  1  0.699368  0.664234  0.406235  1
  Be  Be1016  1  0.699368  0.664234  0.906235  1
  Be  Be1017  1  0.156923  0.149997  0.344375  1
  Be  Be1018  1  0.156923  0.149997  0.844375  1
  Be  Be1019  1  0.156923  0.649996  0.344375  1
  Be  Be1020  1  0.156923  0.649996  0.844375  1
  Be  Be1021  1  0.656923  0.149997  0.344375  1
  Be  Be1022  1  0.656923  0.149997  0.844375  1
  Be  Be1023  1  0.656923  0.649996  0.344375  1
  Be  Be1024  1  0.656923  0.649996  0.844375  1
  Be  Be1025  1  0.161989  0.028542  0.222645  1
  Be  Be1026  1  0.161989  0.028542  0.722645  1
  Be  Be1027  1  0.161989  0.528543  0.222645  1
  Be  Be1028  1  0.161989  0.528543  0.722645  1
  Be  Be1029  1  0.661989  0.028542  0.222645  1
  Be  Be1030  1  0.661989  0.028542  0.722645  1
  Be  Be1031  1  0.661989  0.528543  0.222645  1
  Be  Be1032  1  0.661989  0.528543  0.722645  1
  Be  Be1033  1  0.205895  0.473052  0.232640  1
  Be  Be1034  1  0.205895  0.473052  0.732640  1
  Be  Be1035  1  0.205895  0.973052  0.232640  1
  Be  Be1036  1  0.205895  0.973052  0.732640  1
  Be  Be1037  1  0.705895  0.473052  0.232640  1
  Be  Be1038  1  0.705895  0.473052  0.732640  1
  Be  Be1039  1  0.705895  0.973052  0.232640  1
  Be  Be1040  1  0.705895  0.973052  0.732640  1
  Be  Be1041  1  0.162383  0.450902  0.227265  1
  Be  Be1042  1  0.162383  0.450902  0.727265  1
  Be  Be1043  1  0.162383  0.950902  0.227265  1
  Be  Be1044  1  0.162383  0.950902  0.727265  1
  Be  Be1045  1  0.662383  0.450902  0.227265  1
  Be  Be1046  1  0.662383  0.450902  0.727265  1
  Be  Be1047  1  0.662383  0.950902  0.227265  1
  Be  Be1048  1  0.662383  0.950902  0.727265  1
  Be  Be1049  1  0.158711  0.339350  0.235150  1
  Be  Be1050  1  0.158711  0.339350  0.735150  1
  Be  Be1051  1  0.158711  0.839350  0.235150  1
  Be  Be1052  1  0.158711  0.839350  0.735150  1
  Be  Be1053  1  0.658710  0.339350  0.235150  1
  Be  Be1054  1  0.658710  0.339350  0.735150  1
  Be  Be1055  1  0.658710  0.839350  0.235150  1
  Be  Be1056  1  0.658710  0.839350  0.735150  1
  Be  Be1057  1  0.198726  0.323300  0.250750  1
  Be  Be1058  1  0.198726  0.323300  0.750750  1
  Be  Be1059  1  0.198726  0.823300  0.250750  1
  Be  Be1060  1  0.198726  0.823300  0.750750  1
  Be  Be1061  1  0.698726  0.323300  0.250750  1
  Be  Be1062  1  0.698726  0.323300  0.750750  1
  Be  Be1063  1  0.698726  0.823300  0.250750  1
  Be  Be1064  1  0.698726  0.823300  0.750750  1
  Be  Be1065  1  0.157322  0.260973  0.236330  1
  Be  Be1066  1  0.157322  0.260973  0.736330  1
  Be  Be1067  1  0.157322  0.760973  0.236330  1
  Be  Be1068  1  0.157322  0.760973  0.736330  1
  Be  Be1069  1  0.657322  0.260973  0.236330  1
  Be  Be1070  1  0.657322  0.260973  0.736330  1
  Be  Be1071  1  0.657321  0.760973  0.236330  1
  Be  Be1072  1  0.657321  0.760973  0.736330  1
  Be  Be1073  1  0.381217  0.146374  0.226350  1
  Be  Be1074  1  0.381217  0.146374  0.726350  1
  Be  Be1075  1  0.381217  0.646375  0.226350  1
  Be  Be1076  1  0.381217  0.646375  0.726350  1
  Be  Be1077  1  0.881217  0.146374  0.226350  1
  Be  Be1078  1  0.881217  0.146374  0.726350  1
  Be  Be1079  1  0.881217  0.646375  0.226350  1
  Be  Be1080  1  0.881217  0.646375  0.726350  1
  Be  Be1081  1  0.433656  0.144698  0.225855  1
  Be  Be1082  1  0.433656  0.144698  0.725855  1
  Be  Be1083  1  0.433656  0.644698  0.225855  1
  Be  Be1084  1  0.433656  0.644698  0.725855  1
  Be  Be1085  1  0.933656  0.144698  0.225855  1
  Be  Be1086  1  0.933656  0.144698  0.725855  1
  Be  Be1087  1  0.933656  0.644698  0.225855  1
  Be  Be1088  1  0.933656  0.644698  0.725855  1
  Be  Be1089  1  0.342301  0.388491  0.361550  1
  Be  Be1090  1  0.342301  0.388491  0.861550  1
  Be  Be1091  1  0.342301  0.888492  0.361550  1
  Be  Be1092  1  0.342301  0.888492  0.861550  1
  Be  Be1093  1  0.842301  0.388491  0.361550  1
  Be  Be1094  1  0.842301  0.388491  0.861550  1
  Be  Be1095  1  0.842301  0.888492  0.361550  1
  Be  Be1096  1  0.842301  0.888492  0.861550  1
  Be  Be1097  1  0.295052  0.443602  0.356650  1
  Be  Be1098  1  0.295052  0.443602  0.856650  1
  Be  Be1099  1  0.295052  0.943602  0.356650  1
  Be  Be1100  1  0.295052  0.943602  0.856650  1
  Be  Be1101  1  0.795052  0.443602  0.356650  1
  Be  Be1102  1  0.795052  0.443602  0.856650  1
  Be  Be1103  1  0.795052  0.943602  0.356650  1
  Be  Be1104  1  0.795052  0.943602  0.856650  1
  Be  Be1105  1  0.337888  0.466463  0.360630  1
  Be  Be1106  1  0.337888  0.466463  0.860630  1
  Be  Be1107  1  0.337888  0.966463  0.360630  1
  Be  Be1108  1  0.337888  0.966463  0.860630  1
  Be  Be1109  1  0.837888  0.466463  0.360630  1
  Be  Be1110  1  0.837888  0.466463  0.860630  1
  Be  Be1111  1  0.837888  0.966463  0.360630  1
  Be  Be1112  1  0.837888  0.966463  0.860630  1
  Be  Be1113  1  0.339691  0.077671  0.352350  1
  Be  Be1114  1  0.339691  0.077671  0.852350  1
  Be  Be1115  1  0.339691  0.577670  0.352350  1
  Be  Be1116  1  0.339691  0.577670  0.852350  1
  Be  Be1117  1  0.839690  0.077671  0.352350  1
  Be  Be1118  1  0.839690  0.077671  0.852350  1
  Be  Be1119  1  0.839691  0.577670  0.352350  1
  Be  Be1120  1  0.839691  0.577670  0.852350  1
  Be  Be1121  1  0.300552  0.093824  0.335750  1
  Be  Be1122  1  0.300552  0.093824  0.835750  1
  Be  Be1123  1  0.300552  0.593824  0.335750  1
  Be  Be1124  1  0.300552  0.593824  0.835750  1
  Be  Be1125  1  0.800552  0.093824  0.335750  1
  Be  Be1126  1  0.800552  0.093824  0.835750  1
  Be  Be1127  1  0.800552  0.593824  0.335750  1
  Be  Be1128  1  0.800552  0.593824  0.835750  1
  Be  Be1129  1  0.343065  0.155631  0.349960  1
  Be  Be1130  1  0.343065  0.155631  0.849960  1
  Be  Be1131  1  0.343065  0.655631  0.349960  1
  Be  Be1132  1  0.343065  0.655631  0.849960  1
  Be  Be1133  1  0.843065  0.155631  0.349960  1
  Be  Be1134  1  0.843065  0.155631  0.849960  1
  Be  Be1135  1  0.843065  0.655631  0.349960  1
  Be  Be1136  1  0.843065  0.655631  0.849960  1
  Be  Be1137  1  0.338021  0.277302  0.471555  1
  Be  Be1138  1  0.338021  0.277302  0.971555  1
  Be  Be1139  1  0.338021  0.777302  0.471555  1
  Be  Be1140  1  0.338021  0.777302  0.971555  1
  Be  Be1141  1  0.838022  0.277302  0.471555  1
  Be  Be1142  1  0.838022  0.277302  0.971555  1
  Be  Be1143  1  0.838021  0.777302  0.471555  1
  Be  Be1144  1  0.838021  0.777302  0.971555  1
  Be  Be1145  1  0.294108  0.267388  0.027015  1
  Be  Be1146  1  0.294108  0.267388  0.527015  1
  Be  Be1147  1  0.294108  0.767388  0.027015  1
  Be  Be1148  1  0.294108  0.767388  0.527015  1
  Be  Be1149  1  0.794108  0.267388  0.027015  1
  Be  Be1150  1  0.794108  0.267388  0.527015  1
  Be  Be1151  1  0.794108  0.767388  0.027015  1
  Be  Be1152  1  0.794108  0.767388  0.527015  1
  Be  Be1153  1  0.337622  0.272745  0.049195  1
  Be  Be1154  1  0.337622  0.272745  0.549195  1
  Be  Be1155  1  0.337622  0.772745  0.049195  1
  Be  Be1156  1  0.337622  0.772745  0.549195  1
  Be  Be1157  1  0.837621  0.272745  0.049195  1
  Be  Be1158  1  0.837621  0.272745  0.549195  1
  Be  Be1159  1  0.837621  0.772745  0.049195  1
  Be  Be1160  1  0.837621  0.772745  0.549195  1
  Be  Be1161  1  0.341236  0.265001  0.160770  1
  Be  Be1162  1  0.341236  0.265001  0.660770  1
  Be  Be1163  1  0.341236  0.765001  0.160770  1
  Be  Be1164  1  0.341236  0.765001  0.660770  1
  Be  Be1165  1  0.841236  0.265001  0.160770  1
  Be  Be1166  1  0.841236  0.265001  0.660770  1
  Be  Be1167  1  0.841236  0.765001  0.160770  1
  Be  Be1168  1  0.841236  0.765001  0.660770  1
  Be  Be1169  1  0.301241  0.249373  0.176775  1
  Be  Be1170  1  0.301241  0.249373  0.676775  1
  Be  Be1171  1  0.301241  0.749373  0.176775  1
  Be  Be1172  1  0.301241  0.749373  0.676775  1
  Be  Be1173  1  0.801241  0.249373  0.176775  1
  Be  Be1174  1  0.801241  0.249373  0.676775  1
  Be  Be1175  1  0.801241  0.749373  0.176775  1
  Be  Be1176  1  0.801241  0.749373  0.676775  1
  Be  Be1177  1  0.342621  0.263813  0.239135  1
  Be  Be1178  1  0.342621  0.263813  0.739135  1
  Be  Be1179  1  0.342621  0.763813  0.239135  1
  Be  Be1180  1  0.342621  0.763813  0.739135  1
  Be  Be1181  1  0.842621  0.263813  0.239135  1
  Be  Be1182  1  0.842621  0.263813  0.739135  1
  Be  Be1183  1  0.842621  0.763813  0.239135  1
  Be  Be1184  1  0.842621  0.763813  0.739135  1
  Be  Be1185  1  0.118770  0.273653  0.353655  1
  Be  Be1186  1  0.118770  0.273653  0.853655  1
  Be  Be1187  1  0.118770  0.773653  0.353655  1
  Be  Be1188  1  0.118770  0.773653  0.853655  1
  Be  Be1189  1  0.618770  0.273653  0.353655  1
  Be  Be1190  1  0.618770  0.273653  0.853655  1
  Be  Be1191  1  0.618769  0.773653  0.353655  1
  Be  Be1192  1  0.618769  0.773653  0.853655  1
  Be  Be1193  1  0.066334  0.274136  0.355345  1
  Be  Be1194  1  0.066334  0.274136  0.855345  1
  Be  Be1195  1  0.066334  0.774136  0.355345  1
  Be  Be1196  1  0.066334  0.774136  0.855345  1
  Be  Be1197  1  0.566333  0.274136  0.355345  1
  Be  Be1198  1  0.566333  0.274136  0.855345  1
  Be  Be1199  1  0.566333  0.774136  0.355345  1
  Be  Be1200  1  0.566333  0.774136  0.855345  1
  Al  Al1201  1  0.004067  0.275621  0.454790  1
  Al  Al1202  1  0.004067  0.275621  0.954790  1
  Al  Al1203  1  0.004067  0.775621  0.454790  1
  Al  Al1204  1  0.004067  0.775621  0.954790  1
  Al  Al1205  1  0.504066  0.275621  0.454790  1
  Al  Al1206  1  0.504066  0.275621  0.954790  1
  Al  Al1207  1  0.504066  0.775621  0.454790  1
  Al  Al1208  1  0.504066  0.775621  0.954790  1
  Al  Al1209  1  0.003695  0.309695  0.454610  1
  Al  Al1210  1  0.003695  0.309695  0.954610  1
  Al  Al1211  1  0.003695  0.809695  0.454610  1
  Al  Al1212  1  0.003695  0.809695  0.954610  1
  Al  Al1213  1  0.503695  0.309695  0.454610  1
  Al  Al1214  1  0.503695  0.309695  0.954610  1
  Al  Al1215  1  0.503695  0.809695  0.454610  1
  Al  Al1216  1  0.503695  0.809695  0.954610  1
  Al  Al1217  1  0.495978  0.045191  0.224365  1
  Al  Al1218  1  0.495978  0.045191  0.724365  1
  Al  Al1219  1  0.495978  0.545191  0.224365  1
  Al  Al1220  1  0.495978  0.545191  0.724365  1
  Al  Al1221  1  0.995978  0.045191  0.224365  1
  Al  Al1222  1  0.995978  0.045191  0.724365  1
  Al  Al1223  1  0.995978  0.545191  0.224365  1
  Al  Al1224  1  0.995978  0.545191  0.724365  1
  Al  Al1225  1  0.496382  0.045385  0.190295  1
  Al  Al1226  1  0.496382  0.045385  0.690295  1
  Al  Al1227  1  0.496382  0.545385  0.190295  1
  Al  Al1228  1  0.496382  0.545385  0.690295  1
  Al  Al1229  1  0.996382  0.045385  0.190295  1
  Al  Al1230  1  0.996382  0.045385  0.690295  1
  Al  Al1231  1  0.996382  0.545385  0.190295  1
  Al  Al1232  1  0.996382  0.545385  0.690295  1
  Al  Al1233  1  0.162977  0.141637  0.494595  1
  Al  Al1234  1  0.162977  0.141637  0.994595  1
  Al  Al1235  1  0.162977  0.641637  0.494595  1
  Al  Al1236  1  0.162977  0.641637  0.994595  1
  Al  Al1237  1  0.662977  0.141637  0.494595  1
  Al  Al1238  1  0.662977  0.141637  0.994595  1
  Al  Al1239  1  0.662977  0.641637  0.494595  1
  Al  Al1240  1  0.662977  0.641637  0.994595  1
  Al  Al1241  1  0.162103  0.144659  0.461155  1
  Al  Al1242  1  0.162103  0.144659  0.961155  1
  Al  Al1243  1  0.162103  0.644659  0.461155  1
  Al  Al1244  1  0.162103  0.644659  0.961155  1
  Al  Al1245  1  0.662103  0.144659  0.461155  1
  Al  Al1246  1  0.662103  0.144659  0.961155  1
  Al  Al1247  1  0.662103  0.644659  0.461155  1
  Al  Al1248  1  0.662103  0.644659  0.961155  1
  Al  Al1249  1  0.161360  0.412014  0.230265  1
  Al  Al1250  1  0.161360  0.412014  0.730265  1
  Al  Al1251  1  0.161360  0.912014  0.230265  1
  Al  Al1252  1  0.161360  0.912014  0.730265  1
  Al  Al1253  1  0.661360  0.412014  0.230265  1
  Al  Al1254  1  0.661360  0.412014  0.730265  1
  Al  Al1255  1  0.661360  0.912014  0.230265  1
  Al  Al1256  1  0.661360  0.912014  0.730265  1
  Al  Al1257  1  0.159715  0.378400  0.232795  1
  Al  Al1258  1  0.159715  0.378400  0.732795  1
  Al  Al1259  1  0.159715  0.878400  0.232795  1
  Al  Al1260  1  0.159715  0.878400  0.732795  1
  Al  Al1261  1  0.659715  0.378400  0.232795  1
  Al  Al1262  1  0.659715  0.378400  0.732795  1
  Al  Al1263  1  0.659715  0.878400  0.232795  1
  Al  Al1264  1  0.659715  0.878400  0.732795  1
  Al  Al1265  1  0.336926  0.005422  0.358395  1
  Al  Al1266  1  0.336926  0.005422  0.858395  1
  Al  Al1267  1  0.336926  0.505422  0.358395  1
  Al  Al1268  1  0.336926  0.505422  0.858395  1
  Al  Al1269  1  0.836926  0.005422  0.358395  1
  Al  Al1270  1  0.836926  0.005422  0.858395  1
  Al  Al1271  1  0.836926  0.505422  0.358395  1
  Al  Al1272  1  0.836926  0.505422  0.858395  1
  Al  Al1273  1  0.337823  0.038850  0.355320  1
  Al  Al1274  1  0.337823  0.038850  0.855320  1
  Al  Al1275  1  0.337824  0.538850  0.355320  1
  Al  Al1276  1  0.337824  0.538850  0.855320  1
  Al  Al1277  1  0.837824  0.038850  0.355320  1
  Al  Al1278  1  0.837824  0.038850  0.855320  1
  Al  Al1279  1  0.837823  0.538850  0.355320  1
  Al  Al1280  1  0.837823  0.538850  0.855320  1
  Al  Al1281  1  0.338632  0.269798  0.088090  1
  Al  Al1282  1  0.338632  0.269798  0.588090  1
  Al  Al1283  1  0.338632  0.769798  0.088090  1
  Al  Al1284  1  0.338632  0.769798  0.588090  1
  Al  Al1285  1  0.838632  0.269798  0.088090  1
  Al  Al1286  1  0.838632  0.269798  0.588090  1
  Al  Al1287  1  0.838633  0.769798  0.088090  1
  Al  Al1288  1  0.838633  0.769798  0.588090  1
  Al  Al1289  1  0.340250  0.267317  0.121715  1
  Al  Al1290  1  0.340250  0.267317  0.621715  1
  Al  Al1291  1  0.340250  0.767317  0.121715  1
  Al  Al1292  1  0.340250  0.767317  0.621715  1
  Al  Al1293  1  0.840250  0.267317  0.121715  1
  Al  Al1294  1  0.840250  0.267317  0.621715  1
  Al  Al1295  1  0.840251  0.767317  0.121715  1
  Al  Al1296  1  0.840251  0.767317  0.621715  1
  Si  Si1297  1  0.147544  0.049999  0.428025  1
  Si  Si1298  1  0.147544  0.049999  0.928025  1
  Si  Si1299  1  0.147544  0.549999  0.428025  1
  Si  Si1300  1  0.147544  0.549999  0.928025  1
  Si  Si1301  1  0.647544  0.049999  0.428025  1
  Si  Si1302  1  0.647544  0.049999  0.928025  1
  Si  Si1303  1  0.647544  0.549999  0.428025  1
  Si  Si1304  1  0.647544  0.549999  0.928025  1
  Si  Si1305  1  0.149775  0.037255  0.489295  1
  Si  Si1306  1  0.149775  0.037255  0.989295  1
  Si  Si1307  1  0.149775  0.537255  0.489295  1
  Si  Si1308  1  0.149775  0.537255  0.989295  1
  Si  Si1309  1  0.649774  0.037255  0.489295  1
  Si  Si1310  1  0.649774  0.037255  0.989295  1
  Si  Si1311  1  0.649775  0.537255  0.489295  1
  Si  Si1312  1  0.649775  0.537255  0.989295  1
  Si  Si1313  1  0.352370  0.071973  0.449895  1
  Si  Si1314  1  0.352370  0.071973  0.949895  1
  Si  Si1315  1  0.352370  0.571974  0.449895  1
  Si  Si1316  1  0.352370  0.571974  0.949895  1
  Si  Si1317  1  0.852370  0.071973  0.449895  1
  Si  Si1318  1  0.852370  0.071973  0.949895  1
  Si  Si1319  1  0.852370  0.571974  0.449895  1
  Si  Si1320  1  0.852370  0.571974  0.949895  1
  Si  Si1321  1  0.350295  0.010772  0.462825  1
  Si  Si1322  1  0.350295  0.010772  0.962825  1
  Si  Si1323  1  0.350295  0.510772  0.462825  1
  Si  Si1324  1  0.350295  0.510772  0.962825  1
  Si  Si1325  1  0.850295  0.010772  0.462825  1
  Si  Si1326  1  0.850295  0.010772  0.962825  1
  Si  Si1327  1  0.850295  0.510772  0.462825  1
  Si  Si1328  1  0.850295  0.510772  0.962825  1
  Si  Si1329  1  0.302681  0.125662  0.199960  1
  Si  Si1330  1  0.302681  0.125662  0.699960  1
  Si  Si1331  1  0.302681  0.625662  0.199960  1
  Si  Si1332  1  0.302681  0.625662  0.699960  1
  Si  Si1333  1  0.802681  0.125662  0.199960  1
  Si  Si1334  1  0.802681  0.125662  0.699960  1
  Si  Si1335  1  0.802681  0.625662  0.199960  1
  Si  Si1336  1  0.802681  0.625662  0.699960  1
  Si  Si1337  1  0.309738  0.170396  0.255515  1
  Si  Si1338  1  0.309738  0.170396  0.755515  1
  Si  Si1339  1  0.309738  0.670396  0.255515  1
  Si  Si1340  1  0.309738  0.670396  0.755515  1
  Si  Si1341  1  0.809738  0.170396  0.255515  1
  Si  Si1342  1  0.809738  0.170396  0.755515  1
  Si  Si1343  1  0.809738  0.670396  0.255515  1
  Si  Si1344  1  0.809738  0.670396  0.755515  1
  Si  Si1345  1  0.007219  0.140930  0.192890  1
  Si  Si1346  1  0.007219  0.140930  0.692890  1
  Si  Si1347  1  0.007219  0.640930  0.192890  1
  Si  Si1348  1  0.007219  0.640930  0.692890  1
  Si  Si1349  1  0.507219  0.140930  0.192890  1
  Si  Si1350  1  0.507219  0.140930  0.692890  1
  Si  Si1351  1  0.507219  0.640930  0.192890  1
  Si  Si1352  1  0.507219  0.640930  0.692890  1
  Si  Si1353  1  0.010146  0.143680  0.258125  1
  Si  Si1354  1  0.010146  0.143680  0.758125  1
  Si  Si1355  1  0.010146  0.643680  0.258125  1
  Si  Si1356  1  0.010146  0.643680  0.758125  1
  Si  Si1357  1  0.510146  0.143680  0.258125  1
  Si  Si1358  1  0.510146  0.143680  0.758125  1
  Si  Si1359  1  0.510145  0.643680  0.258125  1
  Si  Si1360  1  0.510145  0.643680  0.758125  1
  Si  Si1361  1  0.197290  0.300070  0.374365  1
  Si  Si1362  1  0.197290  0.300070  0.874365  1
  Si  Si1363  1  0.197290  0.800070  0.374365  1
  Si  Si1364  1  0.197290  0.800070  0.874365  1
  Si  Si1365  1  0.697290  0.300070  0.374365  1
  Si  Si1366  1  0.697290  0.300070  0.874365  1
  Si  Si1367  1  0.697290  0.800070  0.374365  1
  Si  Si1368  1  0.697290  0.800070  0.874365  1
  Si  Si1369  1  0.190268  0.244498  0.329650  1
  Si  Si1370  1  0.190268  0.244498  0.829650  1
  Si  Si1371  1  0.190269  0.744498  0.329650  1
  Si  Si1372  1  0.190269  0.744498  0.829650  1
  Si  Si1373  1  0.690268  0.244498  0.329650  1
  Si  Si1374  1  0.690268  0.244498  0.829650  1
  Si  Si1375  1  0.690268  0.744498  0.329650  1
  Si  Si1376  1  0.690268  0.744498  0.829650  1
  Si  Si1377  1  0.492717  0.307093  0.359175  1
  Si  Si1378  1  0.492717  0.307093  0.859175  1
  Si  Si1379  1  0.492717  0.807093  0.359175  1
  Si  Si1380  1  0.492717  0.807093  0.859175  1
  Si  Si1381  1  0.992717  0.307093  0.359175  1
  Si  Si1382  1  0.992717  0.307093  0.859175  1
  Si  Si1383  1  0.992716  0.807093  0.359175  1
  Si  Si1384  1  0.992716  0.807093  0.859175  1
  Si  Si1385  1  0.489907  0.241847  0.356390  1
  Si  Si1386  1  0.489907  0.241847  0.856390  1
  Si  Si1387  1  0.489907  0.741847  0.356390  1
  Si  Si1388  1  0.489907  0.741847  0.856390  1
  Si  Si1389  1  0.989907  0.241847  0.356390  1
  Si  Si1390  1  0.989907  0.241847  0.856390  1
  Si  Si1391  1  0.989907  0.741847  0.356390  1
  Si  Si1392  1  0.989907  0.741847  0.856390  1
  Cl  Cl1393  1  0.424768  0.159645  0.444205  1
  Cl  Cl1394  1  0.424768  0.159645  0.944205  1
  Cl  Cl1395  1  0.424768  0.659644  0.444205  1
  Cl  Cl1396  1  0.424768  0.659644  0.944205  1
  Cl  Cl1397  1  0.924768  0.159645  0.444205  1
  Cl  Cl1398  1  0.924768  0.159645  0.944205  1
  Cl  Cl1399  1  0.924768  0.659644  0.444205  1
  Cl  Cl1400  1  0.924768  0.659644  0.944205  1
  Cl  Cl1401  1  0.074157  0.166026  0.474615  1
  Cl  Cl1402  1  0.074157  0.166026  0.974615  1
  Cl  Cl1403  1  0.074157  0.666026  0.474615  1
  Cl  Cl1404  1  0.074157  0.666026  0.974615  1
  Cl  Cl1405  1  0.574157  0.166026  0.474615  1
  Cl  Cl1406  1  0.574157  0.166026  0.974615  1
  Cl  Cl1407  1  0.574157  0.666026  0.474615  1
  Cl  Cl1408  1  0.574157  0.666026  0.974615  1
  Cl  Cl1409  1  0.120156  0.223167  0.481370  1
  Cl  Cl1410  1  0.120156  0.223167  0.981370  1
  Cl  Cl1411  1  0.120156  0.723167  0.481370  1
  Cl  Cl1412  1  0.120156  0.723167  0.981370  1
  Cl  Cl1413  1  0.620156  0.223167  0.481370  1
  Cl  Cl1414  1  0.620156  0.223167  0.981370  1
  Cl  Cl1415  1  0.620156  0.723167  0.481370  1
  Cl  Cl1416  1  0.620156  0.723167  0.981370  1
  Cl  Cl1417  1  0.102952  0.251885  0.447845  1
  Cl  Cl1418  1  0.102952  0.251885  0.947845  1
  Cl  Cl1419  1  0.102952  0.751884  0.447845  1
  Cl  Cl1420  1  0.102952  0.751884  0.947845  1
  Cl  Cl1421  1  0.602952  0.251885  0.447845  1
  Cl  Cl1422  1  0.602952  0.251885  0.947845  1
  Cl  Cl1423  1  0.602952  0.751884  0.447845  1
  Cl  Cl1424  1  0.602952  0.751884  0.947845  1
  Cl  Cl1425  1  0.089147  0.265738  0.495905  1
  Cl  Cl1426  1  0.089147  0.265738  0.995905  1
  Cl  Cl1427  1  0.089147  0.765738  0.495905  1
  Cl  Cl1428  1  0.089147  0.765738  0.995905  1
  Cl  Cl1429  1  0.589147  0.265738  0.495905  1
  Cl  Cl1430  1  0.589147  0.265738  0.995905  1
  Cl  Cl1431  1  0.589147  0.765738  0.495905  1
  Cl  Cl1432  1  0.589147  0.765738  0.995905  1
  Cl  Cl1433  1  0.428241  0.228529  0.439895  1
  Cl  Cl1434  1  0.428241  0.228529  0.939895  1
  Cl  Cl1435  1  0.428241  0.728529  0.439895  1
  Cl  Cl1436  1  0.428241  0.728529  0.939895  1
  Cl  Cl1437  1  0.928241  0.228529  0.439895  1
  Cl  Cl1438  1  0.928241  0.228529  0.939895  1
  Cl  Cl1439  1  0.928241  0.728529  0.439895  1
  Cl  Cl1440  1  0.928241  0.728529  0.939895  1
  Cl  Cl1441  1  0.426333  0.346583  0.441435  1
  Cl  Cl1442  1  0.426333  0.346583  0.941435  1
  Cl  Cl1443  1  0.426333  0.846583  0.441435  1
  Cl  Cl1444  1  0.426333  0.846583  0.941435  1
  Cl  Cl1445  1  0.926334  0.346583  0.441435  1
  Cl  Cl1446  1  0.926334  0.346583  0.941435  1
  Cl  Cl1447  1  0.926333  0.846583  0.441435  1
  Cl  Cl1448  1  0.926333  0.846583  0.941435  1
  Cl  Cl1449  1  0.121361  0.375585  0.466480  1
  Cl  Cl1450  1  0.121361  0.375585  0.966480  1
  Cl  Cl1451  1  0.121361  0.875585  0.466480  1
  Cl  Cl1452  1  0.121361  0.875585  0.966480  1
  Cl  Cl1453  1  0.621361  0.375585  0.466480  1
  Cl  Cl1454  1  0.621361  0.375585  0.966480  1
  Cl  Cl1455  1  0.621362  0.875585  0.466480  1
  Cl  Cl1456  1  0.621362  0.875585  0.966480  1
  Cl  Cl1457  1  0.092646  0.350517  0.498465  1
  Cl  Cl1458  1  0.092646  0.350517  0.998465  1
  Cl  Cl1459  1  0.092646  0.850517  0.498465  1
  Cl  Cl1460  1  0.092646  0.850517  0.998465  1
  Cl  Cl1461  1  0.592646  0.350517  0.498465  1
  Cl  Cl1462  1  0.592646  0.350517  0.998465  1
  Cl  Cl1463  1  0.592646  0.850517  0.498465  1
  Cl  Cl1464  1  0.592646  0.850517  0.998465  1
  Cl  Cl1465  1  0.096102  0.328603  0.450730  1
  Cl  Cl1466  1  0.096102  0.328603  0.950730  1
  Cl  Cl1467  1  0.096102  0.828603  0.450730  1
  Cl  Cl1468  1  0.096102  0.828603  0.950730  1
  Cl  Cl1469  1  0.596101  0.328603  0.450730  1
  Cl  Cl1470  1  0.596101  0.328603  0.950730  1
  Cl  Cl1471  1  0.596101  0.828603  0.450730  1
  Cl  Cl1472  1  0.596101  0.828603  0.950730  1
  Cl  Cl1473  1  0.073438  0.429536  0.463050  1
  Cl  Cl1474  1  0.073438  0.429536  0.963050  1
  Cl  Cl1475  1  0.073438  0.929536  0.463050  1
  Cl  Cl1476  1  0.073438  0.929536  0.963050  1
  Cl  Cl1477  1  0.573438  0.429536  0.463050  1
  Cl  Cl1478  1  0.573438  0.429536  0.963050  1
  Cl  Cl1479  1  0.573438  0.929536  0.463050  1
  Cl  Cl1480  1  0.573438  0.929536  0.963050  1
  Cl  Cl1481  1  0.422300  0.416226  0.441700  1
  Cl  Cl1482  1  0.422300  0.416226  0.941700  1
  Cl  Cl1483  1  0.422300  0.916226  0.441700  1
  Cl  Cl1484  1  0.422300  0.916226  0.941700  1
  Cl  Cl1485  1  0.922300  0.416226  0.441700  1
  Cl  Cl1486  1  0.922300  0.416226  0.941700  1
  Cl  Cl1487  1  0.922300  0.916226  0.441700  1
  Cl  Cl1488  1  0.922300  0.916226  0.941700  1
  Cl  Cl1489  1  0.125208  0.054883  0.404085  1
  Cl  Cl1490  1  0.125208  0.054883  0.904085  1
  Cl  Cl1491  1  0.125208  0.554883  0.404085  1
  Cl  Cl1492  1  0.125208  0.554883  0.904085  1
  Cl  Cl1493  1  0.625208  0.054883  0.404085  1
  Cl  Cl1494  1  0.625208  0.054883  0.904085  1
  Cl  Cl1495  1  0.625208  0.554883  0.404085  1
  Cl  Cl1496  1  0.625208  0.554883  0.904085  1
  Cl  Cl1497  1  0.129204  0.033308  0.013620  1
  Cl  Cl1498  1  0.129204  0.033308  0.513620  1
  Cl  Cl1499  1  0.129204  0.533308  0.013620  1
  Cl  Cl1500  1  0.129204  0.533308  0.513620  1
  Cl  Cl1501  1  0.629204  0.033308  0.013620  1
  Cl  Cl1502  1  0.629204  0.033308  0.513620  1
  Cl  Cl1503  1  0.629204  0.533308  0.013620  1
  Cl  Cl1504  1  0.629204  0.533308  0.513620  1
  Cl  Cl1505  1  0.218360  0.030368  0.015080  1
  Cl  Cl1506  1  0.218360  0.030368  0.515080  1
  Cl  Cl1507  1  0.218360  0.530368  0.015080  1
  Cl  Cl1508  1  0.218360  0.530368  0.515080  1
  Cl  Cl1509  1  0.718360  0.030368  0.015080  1
  Cl  Cl1510  1  0.718360  0.030368  0.515080  1
  Cl  Cl1511  1  0.718360  0.530368  0.015080  1
  Cl  Cl1512  1  0.718360  0.530368  0.515080  1
  Cl  Cl1513  1  0.214242  0.055505  0.401510  1
  Cl  Cl1514  1  0.214242  0.055505  0.901510  1
  Cl  Cl1515  1  0.214242  0.555505  0.401510  1
  Cl  Cl1516  1  0.214242  0.555505  0.901510  1
  Cl  Cl1517  1  0.714242  0.055505  0.401510  1
  Cl  Cl1518  1  0.714242  0.055505  0.901510  1
  Cl  Cl1519  1  0.714243  0.555505  0.401510  1
  Cl  Cl1520  1  0.714243  0.555505  0.901510  1
  Cl  Cl1521  1  0.075237  0.055752  0.340405  1
  Cl  Cl1522  1  0.075237  0.055752  0.840405  1
  Cl  Cl1523  1  0.075237  0.555752  0.340405  1
  Cl  Cl1524  1  0.075237  0.555752  0.840405  1
  Cl  Cl1525  1  0.575236  0.055752  0.340405  1
  Cl  Cl1526  1  0.575236  0.055752  0.840405  1
  Cl  Cl1527  1  0.575236  0.555752  0.340405  1
  Cl  Cl1528  1  0.575236  0.555752  0.840405  1
  Cl  Cl1529  1  0.425847  0.025438  0.333880  1
  Cl  Cl1530  1  0.425847  0.025438  0.833880  1
  Cl  Cl1531  1  0.425847  0.525439  0.333880  1
  Cl  Cl1532  1  0.425847  0.525439  0.833880  1
  Cl  Cl1533  1  0.925847  0.025438  0.333880  1
  Cl  Cl1534  1  0.925847  0.025438  0.833880  1
  Cl  Cl1535  1  0.925847  0.525439  0.333880  1
  Cl  Cl1536  1  0.925847  0.525439  0.833880  1
  Cl  Cl1537  1  0.379874  0.018700  0.276700  1
  Cl  Cl1538  1  0.379874  0.018700  0.776700  1
  Cl  Cl1539  1  0.379874  0.518699  0.276700  1
  Cl  Cl1540  1  0.379874  0.518699  0.776700  1
  Cl  Cl1541  1  0.879874  0.018700  0.276700  1
  Cl  Cl1542  1  0.879874  0.018700  0.776700  1
  Cl  Cl1543  1  0.879874  0.518699  0.276700  1
  Cl  Cl1544  1  0.879874  0.518699  0.776700  1
  Cl  Cl1545  1  0.397077  0.052174  0.247970  1
  Cl  Cl1546  1  0.397077  0.052174  0.747970  1
  Cl  Cl1547  1  0.397077  0.552174  0.247970  1
  Cl  Cl1548  1  0.397077  0.552174  0.747970  1
  Cl  Cl1549  1  0.897077  0.052174  0.247970  1
  Cl  Cl1550  1  0.897077  0.052174  0.747970  1
  Cl  Cl1551  1  0.897077  0.552174  0.247970  1
  Cl  Cl1552  1  0.897077  0.552174  0.747970  1
  Cl  Cl1553  1  0.410888  0.000000  0.234190  1
  Cl  Cl1554  1  0.410888  0.000000  0.734190  1
  Cl  Cl1555  1  0.410888  0.500000  0.234190  1
  Cl  Cl1556  1  0.410888  0.500000  0.734190  1
  Cl  Cl1557  1  0.910887  0.000000  0.234190  1
  Cl  Cl1558  1  0.910887  0.000000  0.734190  1
  Cl  Cl1559  1  0.910888  0.500000  0.234190  1
  Cl  Cl1560  1  0.910888  0.500000  0.734190  1
  Cl  Cl1561  1  0.071789  0.060022  0.271520  1
  Cl  Cl1562  1  0.071789  0.060022  0.771520  1
  Cl  Cl1563  1  0.071789  0.560022  0.271520  1
  Cl  Cl1564  1  0.071789  0.560022  0.771520  1
  Cl  Cl1565  1  0.571789  0.060022  0.271520  1
  Cl  Cl1566  1  0.571789  0.060022  0.771520  1
  Cl  Cl1567  1  0.571789  0.560022  0.271520  1
  Cl  Cl1568  1  0.571789  0.560022  0.771520  1
  Cl  Cl1569  1  0.073720  0.058611  0.153450  1
  Cl  Cl1570  1  0.073720  0.058611  0.653450  1
  Cl  Cl1571  1  0.073720  0.558611  0.153450  1
  Cl  Cl1572  1  0.073720  0.558611  0.653450  1
  Cl  Cl1573  1  0.573720  0.058611  0.153450  1
  Cl  Cl1574  1  0.573720  0.058611  0.653450  1
  Cl  Cl1575  1  0.573720  0.558611  0.153450  1
  Cl  Cl1576  1  0.573720  0.558611  0.653450  1
  Cl  Cl1577  1  0.378728  0.033461  0.124315  1
  Cl  Cl1578  1  0.378728  0.033461  0.624315  1
  Cl  Cl1579  1  0.378728  0.533461  0.124315  1
  Cl  Cl1580  1  0.378728  0.533461  0.624315  1
  Cl  Cl1581  1  0.878729  0.033461  0.124315  1
  Cl  Cl1582  1  0.878729  0.033461  0.624315  1
  Cl  Cl1583  1  0.878728  0.533461  0.124315  1
  Cl  Cl1584  1  0.878728  0.533461  0.624315  1
  Cl  Cl1585  1  0.407502  0.001492  0.149420  1
  Cl  Cl1586  1  0.407502  0.001492  0.649420  1
  Cl  Cl1587  1  0.407502  0.501492  0.149420  1
  Cl  Cl1588  1  0.407502  0.501492  0.649420  1
  Cl  Cl1589  1  0.907502  0.001492  0.149420  1
  Cl  Cl1590  1  0.907502  0.001492  0.649420  1
  Cl  Cl1591  1  0.907501  0.501492  0.149420  1
  Cl  Cl1592  1  0.907501  0.501492  0.649420  1
  Cl  Cl1593  1  0.403974  0.049233  0.171300  1
  Cl  Cl1594  1  0.403974  0.049233  0.671300  1
  Cl  Cl1595  1  0.403974  0.549233  0.171300  1
  Cl  Cl1596  1  0.403974  0.549233  0.671300  1
  Cl  Cl1597  1  0.903975  0.049233  0.171300  1
  Cl  Cl1598  1  0.903975  0.049233  0.671300  1
  Cl  Cl1599  1  0.903975  0.549233  0.171300  1
  Cl  Cl1600  1  0.903975  0.549233  0.671300  1
  Cl  Cl1601  1  0.426629  0.036887  0.070410  1
  Cl  Cl1602  1  0.426629  0.036887  0.570410  1
  Cl  Cl1603  1  0.426629  0.536887  0.070410  1
  Cl  Cl1604  1  0.426629  0.536887  0.570410  1
  Cl  Cl1605  1  0.926629  0.036887  0.070410  1
  Cl  Cl1606  1  0.926629  0.036887  0.570410  1
  Cl  Cl1607  1  0.926629  0.536887  0.070410  1
  Cl  Cl1608  1  0.926629  0.536887  0.570410  1
  Cl  Cl1609  1  0.077738  0.058310  0.083850  1
  Cl  Cl1610  1  0.077738  0.058310  0.583850  1
  Cl  Cl1611  1  0.077738  0.558310  0.083850  1
  Cl  Cl1612  1  0.077738  0.558310  0.583850  1
  Cl  Cl1613  1  0.577738  0.058310  0.083850  1
  Cl  Cl1614  1  0.577738  0.058310  0.583850  1
  Cl  Cl1615  1  0.577738  0.558310  0.083850  1
  Cl  Cl1616  1  0.577738  0.558310  0.583850  1
  Cl  Cl1617  1  0.374640  0.095890  0.444925  1
  Cl  Cl1618  1  0.374640  0.095890  0.944925  1
  Cl  Cl1619  1  0.374640  0.595890  0.444925  1
  Cl  Cl1620  1  0.374640  0.595890  0.944925  1
  Cl  Cl1621  1  0.874640  0.095890  0.444925  1
  Cl  Cl1622  1  0.874640  0.095890  0.944925  1
  Cl  Cl1623  1  0.874640  0.595890  0.444925  1
  Cl  Cl1624  1  0.874640  0.595890  0.944925  1
  Cl  Cl1625  1  0.370917  0.486466  0.466840  1
  Cl  Cl1626  1  0.370917  0.486466  0.966840  1
  Cl  Cl1627  1  0.370917  0.986466  0.466840  1
  Cl  Cl1628  1  0.370917  0.986466  0.966840  1
  Cl  Cl1629  1  0.870917  0.486466  0.466840  1
  Cl  Cl1630  1  0.870917  0.486466  0.966840  1
  Cl  Cl1631  1  0.870917  0.986466  0.466840  1
  Cl  Cl1632  1  0.870917  0.986466  0.966840  1
  Cl  Cl1633  1  0.281775  0.484999  0.469815  1
  Cl  Cl1634  1  0.281775  0.484999  0.969815  1
  Cl  Cl1635  1  0.281775  0.984999  0.469815  1
  Cl  Cl1636  1  0.281775  0.984999  0.969815  1
  Cl  Cl1637  1  0.781775  0.484999  0.469815  1
  Cl  Cl1638  1  0.781775  0.484999  0.969815  1
  Cl  Cl1639  1  0.781775  0.984999  0.469815  1
  Cl  Cl1640  1  0.781775  0.984999  0.969815  1
  Cl  Cl1641  1  0.285604  0.098446  0.444330  1
  Cl  Cl1642  1  0.285604  0.098446  0.944330  1
  Cl  Cl1643  1  0.285604  0.598445  0.444330  1
  Cl  Cl1644  1  0.285604  0.598445  0.944330  1
  Cl  Cl1645  1  0.785604  0.098446  0.444330  1
  Cl  Cl1646  1  0.785604  0.098446  0.944330  1
  Cl  Cl1647  1  0.785604  0.598445  0.444330  1
  Cl  Cl1648  1  0.785604  0.598445  0.944330  1
  Cl  Cl1649  1  0.233749  0.146037  0.113385  1
  Cl  Cl1650  1  0.233749  0.146037  0.613385  1
  Cl  Cl1651  1  0.233749  0.646037  0.113385  1
  Cl  Cl1652  1  0.233749  0.646037  0.613385  1
  Cl  Cl1653  1  0.733749  0.146037  0.113385  1
  Cl  Cl1654  1  0.733749  0.146037  0.613385  1
  Cl  Cl1655  1  0.733749  0.646037  0.113385  1
  Cl  Cl1656  1  0.733749  0.646037  0.613385  1
  Cl  Cl1657  1  0.081753  0.130638  0.101355  1
  Cl  Cl1658  1  0.081753  0.130638  0.601355  1
  Cl  Cl1659  1  0.081753  0.630638  0.101355  1
  Cl  Cl1660  1  0.081753  0.630638  0.601355  1
  Cl  Cl1661  1  0.581753  0.130638  0.101355  1
  Cl  Cl1662  1  0.581753  0.130638  0.601355  1
  Cl  Cl1663  1  0.581753  0.630638  0.101355  1
  Cl  Cl1664  1  0.581753  0.630638  0.601355  1
  Cl  Cl1665  1  0.085582  0.130085  0.031600  1
  Cl  Cl1666  1  0.085582  0.130085  0.531600  1
  Cl  Cl1667  1  0.085582  0.630086  0.031600  1
  Cl  Cl1668  1  0.085582  0.630086  0.531600  1
  Cl  Cl1669  1  0.585582  0.130085  0.031600  1
  Cl  Cl1670  1  0.585582  0.130085  0.531600  1
  Cl  Cl1671  1  0.585582  0.630086  0.031600  1
  Cl  Cl1672  1  0.585582  0.630086  0.531600  1
  Cl  Cl1673  1  0.252277  0.170738  0.022370  1
  Cl  Cl1674  1  0.252277  0.170738  0.522370  1
  Cl  Cl1675  1  0.252277  0.670738  0.022370  1
  Cl  Cl1676  1  0.252277  0.670738  0.522370  1
  Cl  Cl1677  1  0.752277  0.170738  0.022370  1
  Cl  Cl1678  1  0.752277  0.170738  0.522370  1
  Cl  Cl1679  1  0.752277  0.670738  0.022370  1
  Cl  Cl1680  1  0.752277  0.670738  0.522370  1
  Cl  Cl1681  1  0.281032  0.154217  0.061060  1
  Cl  Cl1682  1  0.281032  0.154217  0.561060  1
  Cl  Cl1683  1  0.281032  0.654217  0.061060  1
  Cl  Cl1684  1  0.281032  0.654217  0.561060  1
  Cl  Cl1685  1  0.781033  0.154217  0.061060  1
  Cl  Cl1686  1  0.781033  0.154217  0.561060  1
  Cl  Cl1687  1  0.781032  0.654217  0.061060  1
  Cl  Cl1688  1  0.781032  0.654217  0.561060  1
  Cl  Cl1689  1  0.260661  0.121829  0.019580  1
  Cl  Cl1690  1  0.260661  0.121829  0.519580  1
  Cl  Cl1691  1  0.260661  0.621829  0.019580  1
  Cl  Cl1692  1  0.260661  0.621829  0.519580  1
  Cl  Cl1693  1  0.760661  0.121829  0.019580  1
  Cl  Cl1694  1  0.760661  0.121829  0.519580  1
  Cl  Cl1695  1  0.760661  0.621829  0.019580  1
  Cl  Cl1696  1  0.760661  0.621829  0.519580  1
  Cl  Cl1697  1  0.266313  0.157439  0.435130  1
  Cl  Cl1698  1  0.266313  0.157439  0.935130  1
  Cl  Cl1699  1  0.266312  0.657439  0.435130  1
  Cl  Cl1700  1  0.266312  0.657439  0.935130  1
  Cl  Cl1701  1  0.766312  0.157439  0.435130  1
  Cl  Cl1702  1  0.766312  0.157439  0.935130  1
  Cl  Cl1703  1  0.766312  0.657439  0.435130  1
  Cl  Cl1704  1  0.766312  0.657439  0.935130  1
  Cl  Cl1705  1  0.263654  0.199627  0.415865  1
  Cl  Cl1706  1  0.263654  0.199627  0.915865  1
  Cl  Cl1707  1  0.263654  0.699627  0.415865  1
  Cl  Cl1708  1  0.263654  0.699627  0.915865  1
  Cl  Cl1709  1  0.763654  0.199627  0.415865  1
  Cl  Cl1710  1  0.763654  0.199627  0.915865  1
  Cl  Cl1711  1  0.763654  0.699627  0.415865  1
  Cl  Cl1712  1  0.763654  0.699627  0.915865  1
  Cl  Cl1713  1  0.233390  0.195295  0.458030  1
  Cl  Cl1714  1  0.233390  0.195295  0.958030  1
  Cl  Cl1715  1  0.233390  0.695295  0.458030  1
  Cl  Cl1716  1  0.233390  0.695295  0.958030  1
  Cl  Cl1717  1  0.733390  0.195295  0.458030  1
  Cl  Cl1718  1  0.733390  0.195295  0.958030  1
  Cl  Cl1719  1  0.733390  0.695295  0.458030  1
  Cl  Cl1720  1  0.733390  0.695295  0.958030  1
  Cl  Cl1721  1  0.089391  0.121488  0.412230  1
  Cl  Cl1722  1  0.089391  0.121488  0.912230  1
  Cl  Cl1723  1  0.089391  0.621488  0.412230  1
  Cl  Cl1724  1  0.089391  0.621488  0.912230  1
  Cl  Cl1725  1  0.589391  0.121488  0.412230  1
  Cl  Cl1726  1  0.589391  0.121488  0.912230  1
  Cl  Cl1727  1  0.589391  0.621488  0.412230  1
  Cl  Cl1728  1  0.589391  0.621488  0.912230  1
  Cl  Cl1729  1  0.086417  0.124022  0.343030  1
  Cl  Cl1730  1  0.086417  0.124022  0.843030  1
  Cl  Cl1731  1  0.086417  0.624022  0.343030  1
  Cl  Cl1732  1  0.086417  0.624022  0.843030  1
  Cl  Cl1733  1  0.586418  0.124022  0.343030  1
  Cl  Cl1734  1  0.586418  0.124022  0.843030  1
  Cl  Cl1735  1  0.586417  0.624022  0.343030  1
  Cl  Cl1736  1  0.586417  0.624022  0.843030  1
  Cl  Cl1737  1  0.226670  0.177601  0.355050  1
  Cl  Cl1738  1  0.226670  0.177601  0.855050  1
  Cl  Cl1739  1  0.226670  0.677601  0.355050  1
  Cl  Cl1740  1  0.226670  0.677601  0.855050  1
  Cl  Cl1741  1  0.726670  0.177601  0.355050  1
  Cl  Cl1742  1  0.726670  0.177601  0.855050  1
  Cl  Cl1743  1  0.726670  0.677601  0.355050  1
  Cl  Cl1744  1  0.726670  0.677601  0.855050  1
  Cl  Cl1745  1  0.237402  0.029007  0.234250  1
  Cl  Cl1746  1  0.237402  0.029007  0.734250  1
  Cl  Cl1747  1  0.237402  0.529008  0.234250  1
  Cl  Cl1748  1  0.237402  0.529008  0.734250  1
  Cl  Cl1749  1  0.737402  0.029007  0.234250  1
  Cl  Cl1750  1  0.737402  0.029007  0.734250  1
  Cl  Cl1751  1  0.737402  0.529008  0.234250  1
  Cl  Cl1752  1  0.737402  0.529008  0.734250  1
  Cl  Cl1753  1  0.086360  0.019353  0.210570  1
  Cl  Cl1754  1  0.086360  0.019353  0.710570  1
  Cl  Cl1755  1  0.086360  0.519354  0.210570  1
  Cl  Cl1756  1  0.086360  0.519354  0.710570  1
  Cl  Cl1757  1  0.586360  0.019353  0.210570  1
  Cl  Cl1758  1  0.586360  0.019353  0.710570  1
  Cl  Cl1759  1  0.586360  0.519354  0.210570  1
  Cl  Cl1760  1  0.586360  0.519354  0.710570  1
  Cl  Cl1761  1  0.086692  0.450765  0.214535  1
  Cl  Cl1762  1  0.086692  0.450765  0.714535  1
  Cl  Cl1763  1  0.086692  0.950765  0.214535  1
  Cl  Cl1764  1  0.086692  0.950765  0.714535  1
  Cl  Cl1765  1  0.586691  0.450765  0.214535  1
  Cl  Cl1766  1  0.586691  0.450765  0.714535  1
  Cl  Cl1767  1  0.586691  0.950765  0.214535  1
  Cl  Cl1768  1  0.586691  0.950765  0.714535  1
  Cl  Cl1769  1  0.281643  0.476397  0.245610  1
  Cl  Cl1770  1  0.281643  0.476397  0.745610  1
  Cl  Cl1771  1  0.281643  0.976397  0.245610  1
  Cl  Cl1772  1  0.281643  0.976397  0.745610  1
  Cl  Cl1773  1  0.781643  0.476397  0.245610  1
  Cl  Cl1774  1  0.781643  0.476397  0.745610  1
  Cl  Cl1775  1  0.781643  0.976397  0.245610  1
  Cl  Cl1776  1  0.781643  0.976397  0.745610  1
  Cl  Cl1777  1  0.249807  0.441509  0.265700  1
  Cl  Cl1778  1  0.249807  0.441509  0.765700  1
  Cl  Cl1779  1  0.249807  0.941508  0.265700  1
  Cl  Cl1780  1  0.249807  0.941508  0.765700  1
  Cl  Cl1781  1  0.749807  0.441509  0.265700  1
  Cl  Cl1782  1  0.749807  0.441509  0.765700  1
  Cl  Cl1783  1  0.749807  0.941508  0.265700  1
  Cl  Cl1784  1  0.749807  0.941508  0.765700  1
  Cl  Cl1785  1  0.260418  0.432812  0.216910  1
  Cl  Cl1786  1  0.260418  0.432812  0.716910  1
  Cl  Cl1787  1  0.260418  0.932812  0.216910  1
  Cl  Cl1788  1  0.260418  0.932812  0.716910  1
  Cl  Cl1789  1  0.760418  0.432812  0.216910  1
  Cl  Cl1790  1  0.760418  0.432812  0.716910  1
  Cl  Cl1791  1  0.760418  0.932812  0.216910  1
  Cl  Cl1792  1  0.760418  0.932812  0.716910  1
  Cl  Cl1793  1  0.087522  0.328585  0.209950  1
  Cl  Cl1794  1  0.087522  0.328585  0.709950  1
  Cl  Cl1795  1  0.087522  0.828585  0.209950  1
  Cl  Cl1796  1  0.087522  0.828585  0.709950  1
  Cl  Cl1797  1  0.587522  0.328585  0.209950  1
  Cl  Cl1798  1  0.587522  0.328585  0.709950  1
  Cl  Cl1799  1  0.587522  0.828585  0.209950  1
  Cl  Cl1800  1  0.587522  0.828585  0.709950  1
  Cl  Cl1801  1  0.263066  0.354641  0.242525  1
  Cl  Cl1802  1  0.263066  0.354641  0.742525  1
  Cl  Cl1803  1  0.263066  0.854641  0.242525  1
  Cl  Cl1804  1  0.263066  0.854641  0.742525  1
  Cl  Cl1805  1  0.763066  0.354641  0.242525  1
  Cl  Cl1806  1  0.763066  0.354641  0.742525  1
  Cl  Cl1807  1  0.763066  0.854641  0.242525  1
  Cl  Cl1808  1  0.763066  0.854641  0.742525  1
  Cl  Cl1809  1  0.232832  0.374329  0.283270  1
  Cl  Cl1810  1  0.232832  0.374329  0.783270  1
  Cl  Cl1811  1  0.232831  0.874329  0.283270  1
  Cl  Cl1812  1  0.232831  0.874329  0.783270  1
  Cl  Cl1813  1  0.732831  0.374329  0.283270  1
  Cl  Cl1814  1  0.732831  0.374329  0.783270  1
  Cl  Cl1815  1  0.732831  0.874329  0.283270  1
  Cl  Cl1816  1  0.732831  0.874329  0.783270  1
  Cl  Cl1817  1  0.265467  0.332345  0.283050  1
  Cl  Cl1818  1  0.265467  0.332345  0.783050  1
  Cl  Cl1819  1  0.265467  0.832345  0.283050  1
  Cl  Cl1820  1  0.265467  0.832345  0.783050  1
  Cl  Cl1821  1  0.765467  0.332345  0.283050  1
  Cl  Cl1822  1  0.765467  0.332345  0.783050  1
  Cl  Cl1823  1  0.765467  0.832345  0.283050  1
  Cl  Cl1824  1  0.765467  0.832345  0.783050  1
  Cl  Cl1825  1  0.227683  0.272044  0.262750  1
  Cl  Cl1826  1  0.227683  0.272044  0.762750  1
  Cl  Cl1827  1  0.227683  0.772044  0.262750  1
  Cl  Cl1828  1  0.227683  0.772044  0.762750  1
  Cl  Cl1829  1  0.727683  0.272044  0.262750  1
  Cl  Cl1830  1  0.727683  0.272044  0.762750  1
  Cl  Cl1831  1  0.727682  0.772044  0.262750  1
  Cl  Cl1832  1  0.727682  0.772044  0.762750  1
  Cl  Cl1833  1  0.086214  0.259051  0.211435  1
  Cl  Cl1834  1  0.086214  0.259051  0.711435  1
  Cl  Cl1835  1  0.086214  0.759051  0.211435  1
  Cl  Cl1836  1  0.086214  0.759051  0.711435  1
  Cl  Cl1837  1  0.586214  0.259051  0.211435  1
  Cl  Cl1838  1  0.586214  0.259051  0.711435  1
  Cl  Cl1839  1  0.586214  0.759051  0.211435  1
  Cl  Cl1840  1  0.586214  0.759051  0.711435  1
  Cl  Cl1841  1  0.278517  0.108446  0.178780  1
  Cl  Cl1842  1  0.278517  0.108446  0.678780  1
  Cl  Cl1843  1  0.278517  0.608445  0.178780  1
  Cl  Cl1844  1  0.278517  0.608445  0.678780  1
  Cl  Cl1845  1  0.778517  0.108446  0.178780  1
  Cl  Cl1846  1  0.778517  0.108446  0.678780  1
  Cl  Cl1847  1  0.778517  0.608445  0.178780  1
  Cl  Cl1848  1  0.778517  0.608445  0.678780  1
  Cl  Cl1849  1  0.291745  0.188964  0.277590  1
  Cl  Cl1850  1  0.291745  0.188964  0.777590  1
  Cl  Cl1851  1  0.291745  0.688964  0.277590  1
  Cl  Cl1852  1  0.291745  0.688964  0.777590  1
  Cl  Cl1853  1  0.791745  0.188964  0.277590  1
  Cl  Cl1854  1  0.791745  0.188964  0.777590  1
  Cl  Cl1855  1  0.791745  0.688964  0.277590  1
  Cl  Cl1856  1  0.791745  0.688964  0.777590  1
  Cl  Cl1857  1  0.380067  0.188822  0.277905  1
  Cl  Cl1858  1  0.380067  0.188822  0.777905  1
  Cl  Cl1859  1  0.380067  0.688821  0.277905  1
  Cl  Cl1860  1  0.380067  0.688821  0.777905  1
  Cl  Cl1861  1  0.880067  0.188822  0.277905  1
  Cl  Cl1862  1  0.880067  0.188822  0.777905  1
  Cl  Cl1863  1  0.880067  0.688821  0.277905  1
  Cl  Cl1864  1  0.880067  0.688821  0.777905  1
  Cl  Cl1865  1  0.366973  0.105125  0.174450  1
  Cl  Cl1866  1  0.366973  0.105125  0.674450  1
  Cl  Cl1867  1  0.366973  0.605126  0.174450  1
  Cl  Cl1868  1  0.366973  0.605126  0.674450  1
  Cl  Cl1869  1  0.866973  0.105125  0.174450  1
  Cl  Cl1870  1  0.866973  0.105125  0.674450  1
  Cl  Cl1871  1  0.866973  0.605126  0.174450  1
  Cl  Cl1872  1  0.866973  0.605126  0.674450  1
  Cl  Cl1873  1  0.443917  0.146367  0.286530  1
  Cl  Cl1874  1  0.443917  0.146367  0.786530  1
  Cl  Cl1875  1  0.443917  0.646367  0.286530  1
  Cl  Cl1876  1  0.443917  0.646367  0.786530  1
  Cl  Cl1877  1  0.943917  0.146367  0.286530  1
  Cl  Cl1878  1  0.943917  0.146367  0.786530  1
  Cl  Cl1879  1  0.943917  0.646367  0.286530  1
  Cl  Cl1880  1  0.943917  0.646367  0.786530  1
  Cl  Cl1881  1  0.438633  0.141826  0.164995  1
  Cl  Cl1882  1  0.438633  0.141826  0.664995  1
  Cl  Cl1883  1  0.438633  0.641826  0.164995  1
  Cl  Cl1884  1  0.438633  0.641826  0.664995  1
  Cl  Cl1885  1  0.938633  0.141826  0.164995  1
  Cl  Cl1886  1  0.938633  0.141826  0.664995  1
  Cl  Cl1887  1  0.938633  0.641826  0.164995  1
  Cl  Cl1888  1  0.938633  0.641826  0.664995  1
  Cl  Cl1889  1  0.027396  0.139169  0.167255  1
  Cl  Cl1890  1  0.027396  0.139169  0.667255  1
  Cl  Cl1891  1  0.027397  0.639169  0.167255  1
  Cl  Cl1892  1  0.027397  0.639169  0.667255  1
  Cl  Cl1893  1  0.527397  0.139169  0.167255  1
  Cl  Cl1894  1  0.527397  0.139169  0.667255  1
  Cl  Cl1895  1  0.527396  0.639169  0.167255  1
  Cl  Cl1896  1  0.527396  0.639169  0.667255  1
  Cl  Cl1897  1  0.032729  0.143657  0.283435  1
  Cl  Cl1898  1  0.032729  0.143657  0.783435  1
  Cl  Cl1899  1  0.032729  0.643658  0.283435  1
  Cl  Cl1900  1  0.032729  0.643658  0.783435  1
  Cl  Cl1901  1  0.532729  0.143657  0.283435  1
  Cl  Cl1902  1  0.532729  0.143657  0.783435  1
  Cl  Cl1903  1  0.532728  0.643658  0.283435  1
  Cl  Cl1904  1  0.532728  0.643658  0.783435  1
  Cl  Cl1905  1  0.266190  0.386665  0.354070  1
  Cl  Cl1906  1  0.266190  0.386665  0.854070  1
  Cl  Cl1907  1  0.266190  0.886665  0.354070  1
  Cl  Cl1908  1  0.266190  0.886665  0.854070  1
  Cl  Cl1909  1  0.766190  0.386665  0.354070  1
  Cl  Cl1910  1  0.766190  0.386665  0.854070  1
  Cl  Cl1911  1  0.766190  0.886665  0.354070  1
  Cl  Cl1912  1  0.766190  0.886665  0.854070  1
  Cl  Cl1913  1  0.418186  0.398615  0.369520  1
  Cl  Cl1914  1  0.418186  0.398615  0.869520  1
  Cl  Cl1915  1  0.418186  0.898615  0.369520  1
  Cl  Cl1916  1  0.418186  0.898615  0.869520  1
  Cl  Cl1917  1  0.918186  0.398615  0.369520  1
  Cl  Cl1918  1  0.918186  0.398615  0.869520  1
  Cl  Cl1919  1  0.918186  0.898615  0.369520  1
  Cl  Cl1920  1  0.918186  0.898615  0.869520  1
  Cl  Cl1921  1  0.414321  0.468375  0.370055  1
  Cl  Cl1922  1  0.414321  0.468375  0.870055  1
  Cl  Cl1923  1  0.414321  0.968375  0.370055  1
  Cl  Cl1924  1  0.414321  0.968375  0.870055  1
  Cl  Cl1925  1  0.914321  0.468375  0.370055  1
  Cl  Cl1926  1  0.914321  0.468375  0.870055  1
  Cl  Cl1927  1  0.914321  0.968375  0.370055  1
  Cl  Cl1928  1  0.914321  0.968375  0.870055  1
  Cl  Cl1929  1  0.247626  0.477662  0.329275  1
  Cl  Cl1930  1  0.247626  0.477662  0.829275  1
  Cl  Cl1931  1  0.247626  0.977662  0.329275  1
  Cl  Cl1932  1  0.247626  0.977662  0.829275  1
  Cl  Cl1933  1  0.747626  0.477662  0.329275  1
  Cl  Cl1934  1  0.747626  0.477662  0.829275  1
  Cl  Cl1935  1  0.747626  0.977662  0.329275  1
  Cl  Cl1936  1  0.747626  0.977662  0.829275  1
  Cl  Cl1937  1  0.218881  0.439005  0.345795  1
  Cl  Cl1938  1  0.218881  0.439005  0.845795  1
  Cl  Cl1939  1  0.218881  0.939005  0.345795  1
  Cl  Cl1940  1  0.218881  0.939005  0.845795  1
  Cl  Cl1941  1  0.718882  0.439005  0.345795  1
  Cl  Cl1942  1  0.718882  0.439005  0.845795  1
  Cl  Cl1943  1  0.718881  0.939005  0.345795  1
  Cl  Cl1944  1  0.718881  0.939005  0.845795  1
  Cl  Cl1945  1  0.239220  0.480498  0.378175  1
  Cl  Cl1946  1  0.239220  0.480498  0.878175  1
  Cl  Cl1947  1  0.239220  0.980498  0.378175  1
  Cl  Cl1948  1  0.239220  0.980498  0.878175  1
  Cl  Cl1949  1  0.739220  0.480498  0.378175  1
  Cl  Cl1950  1  0.739220  0.480498  0.878175  1
  Cl  Cl1951  1  0.739220  0.980498  0.378175  1
  Cl  Cl1952  1  0.739220  0.980498  0.878175  1
  Cl  Cl1953  1  0.233594  0.065088  0.342635  1
  Cl  Cl1954  1  0.233594  0.065088  0.842635  1
  Cl  Cl1955  1  0.233594  0.565088  0.342635  1
  Cl  Cl1956  1  0.233594  0.565088  0.842635  1
  Cl  Cl1957  1  0.733594  0.065088  0.342635  1
  Cl  Cl1958  1  0.733594  0.065088  0.842635  1
  Cl  Cl1959  1  0.733594  0.565088  0.342635  1
  Cl  Cl1960  1  0.733594  0.565088  0.842635  1
  Cl  Cl1961  1  0.236193  0.084253  0.300395  1
  Cl  Cl1962  1  0.236193  0.084253  0.800395  1
  Cl  Cl1963  1  0.236193  0.584253  0.300395  1
  Cl  Cl1964  1  0.236193  0.584253  0.800395  1
  Cl  Cl1965  1  0.736193  0.084253  0.300395  1
  Cl  Cl1966  1  0.736193  0.084253  0.800395  1
  Cl  Cl1967  1  0.736193  0.584253  0.300395  1
  Cl  Cl1968  1  0.736193  0.584253  0.800395  1
  Cl  Cl1969  1  0.266402  0.042046  0.304785  1
  Cl  Cl1970  1  0.266402  0.042046  0.804785  1
  Cl  Cl1971  1  0.266402  0.542046  0.304785  1
  Cl  Cl1972  1  0.266402  0.542046  0.804785  1
  Cl  Cl1973  1  0.766402  0.042046  0.304785  1
  Cl  Cl1974  1  0.766402  0.042046  0.804785  1
  Cl  Cl1975  1  0.766402  0.542046  0.304785  1
  Cl  Cl1976  1  0.766402  0.542046  0.804785  1
  Cl  Cl1977  1  0.410613  0.087671  0.378415  1
  Cl  Cl1978  1  0.410613  0.087671  0.878415  1
  Cl  Cl1979  1  0.410613  0.587671  0.378415  1
  Cl  Cl1980  1  0.410613  0.587671  0.878415  1
  Cl  Cl1981  1  0.910613  0.087671  0.378415  1
  Cl  Cl1982  1  0.910613  0.087671  0.878415  1
  Cl  Cl1983  1  0.910613  0.587671  0.378415  1
  Cl  Cl1984  1  0.910613  0.587671  0.878415  1
  Cl  Cl1985  1  0.413611  0.156884  0.375900  1
  Cl  Cl1986  1  0.413611  0.156884  0.875900  1
  Cl  Cl1987  1  0.413611  0.656884  0.375900  1
  Cl  Cl1988  1  0.413611  0.656884  0.875900  1
  Cl  Cl1989  1  0.913611  0.156884  0.375900  1
  Cl  Cl1990  1  0.913611  0.156884  0.875900  1
  Cl  Cl1991  1  0.913611  0.656884  0.375900  1
  Cl  Cl1992  1  0.913611  0.656884  0.875900  1
  Cl  Cl1993  1  0.273259  0.145055  0.322395  1
  Cl  Cl1994  1  0.273259  0.145055  0.822395  1
  Cl  Cl1995  1  0.273259  0.645055  0.322395  1
  Cl  Cl1996  1  0.273259  0.645055  0.822395  1
  Cl  Cl1997  1  0.773259  0.145055  0.322395  1
  Cl  Cl1998  1  0.773259  0.145055  0.822395  1
  Cl  Cl1999  1  0.773259  0.645055  0.322395  1
  Cl  Cl2000  1  0.773259  0.645055  0.822395  1
  Cl  Cl2001  1  0.262604  0.265770  0.471000  1
  Cl  Cl2002  1  0.262604  0.265770  0.971000  1
  Cl  Cl2003  1  0.262604  0.765770  0.471000  1
  Cl  Cl2004  1  0.262604  0.765770  0.971000  1
  Cl  Cl2005  1  0.762604  0.265770  0.471000  1
  Cl  Cl2006  1  0.762604  0.265770  0.971000  1
  Cl  Cl2007  1  0.762604  0.765770  0.471000  1
  Cl  Cl2008  1  0.762604  0.765770  0.971000  1
  Cl  Cl2009  1  0.413656  0.289309  0.480800  1
  Cl  Cl2010  1  0.413656  0.289309  0.980800  1
  Cl  Cl2011  1  0.413656  0.789309  0.480800  1
  Cl  Cl2012  1  0.413656  0.789309  0.980800  1
  Cl  Cl2013  1  0.913656  0.289309  0.480800  1
  Cl  Cl2014  1  0.913656  0.289309  0.980800  1
  Cl  Cl2015  1  0.913656  0.789309  0.480800  1
  Cl  Cl2016  1  0.913656  0.789309  0.980800  1
  Cl  Cl2017  1  0.413316  0.285385  0.049385  1
  Cl  Cl2018  1  0.413316  0.285385  0.549385  1
  Cl  Cl2019  1  0.413316  0.785385  0.049385  1
  Cl  Cl2020  1  0.413316  0.785385  0.549385  1
  Cl  Cl2021  1  0.913316  0.285385  0.049385  1
  Cl  Cl2022  1  0.913316  0.285385  0.549385  1
  Cl  Cl2023  1  0.913316  0.785385  0.049385  1
  Cl  Cl2024  1  0.913316  0.785385  0.549385  1
  Cl  Cl2025  1  0.218359  0.254485  0.023615  1
  Cl  Cl2026  1  0.218359  0.254485  0.523615  1
  Cl  Cl2027  1  0.218359  0.754485  0.023615  1
  Cl  Cl2028  1  0.218359  0.754485  0.523615  1
  Cl  Cl2029  1  0.718359  0.254485  0.023615  1
  Cl  Cl2030  1  0.718359  0.254485  0.523615  1
  Cl  Cl2031  1  0.718359  0.754485  0.023615  1
  Cl  Cl2032  1  0.718359  0.754485  0.523615  1
  Cl  Cl2033  1  0.250180  0.234386  0.058560  1
  Cl  Cl2034  1  0.250180  0.234386  0.558560  1
  Cl  Cl2035  1  0.250180  0.734386  0.058560  1
  Cl  Cl2036  1  0.250180  0.734386  0.558560  1
  Cl  Cl2037  1  0.750180  0.234386  0.058560  1
  Cl  Cl2038  1  0.750180  0.234386  0.558560  1
  Cl  Cl2039  1  0.750180  0.734386  0.058560  1
  Cl  Cl2040  1  0.750180  0.734386  0.558560  1
  Cl  Cl2041  1  0.239584  0.283215  0.067185  1
  Cl  Cl2042  1  0.239584  0.283215  0.567185  1
  Cl  Cl2043  1  0.239584  0.783215  0.067185  1
  Cl  Cl2044  1  0.239584  0.783215  0.567185  1
  Cl  Cl2045  1  0.739584  0.283215  0.067185  1
  Cl  Cl2046  1  0.739584  0.283215  0.567185  1
  Cl  Cl2047  1  0.739584  0.783215  0.067185  1
  Cl  Cl2048  1  0.739584  0.783215  0.567185  1
  Cl  Cl2049  1  0.412372  0.290248  0.171610  1
  Cl  Cl2050  1  0.412372  0.290248  0.671610  1
  Cl  Cl2051  1  0.412372  0.790248  0.171610  1
  Cl  Cl2052  1  0.412372  0.790248  0.671610  1
  Cl  Cl2053  1  0.912372  0.290248  0.171610  1
  Cl  Cl2054  1  0.912372  0.290248  0.671610  1
  Cl  Cl2055  1  0.912372  0.790248  0.171610  1
  Cl  Cl2056  1  0.912372  0.790248  0.671610  1
  Cl  Cl2057  1  0.236862  0.257593  0.145385  1
  Cl  Cl2058  1  0.236862  0.257593  0.645385  1
  Cl  Cl2059  1  0.236862  0.757593  0.145385  1
  Cl  Cl2060  1  0.236862  0.757593  0.645385  1
  Cl  Cl2061  1  0.736862  0.257593  0.145385  1
  Cl  Cl2062  1  0.736862  0.257593  0.645385  1
  Cl  Cl2063  1  0.736862  0.757593  0.145385  1
  Cl  Cl2064  1  0.736862  0.757593  0.645385  1
  Cl  Cl2065  1  0.267170  0.216855  0.125725  1
  Cl  Cl2066  1  0.267170  0.216855  0.625725  1
  Cl  Cl2067  1  0.267170  0.716855  0.125725  1
  Cl  Cl2068  1  0.267170  0.716855  0.625725  1
  Cl  Cl2069  1  0.767170  0.216855  0.125725  1
  Cl  Cl2070  1  0.767170  0.216855  0.625725  1
  Cl  Cl2071  1  0.767170  0.716855  0.125725  1
  Cl  Cl2072  1  0.767170  0.716855  0.625725  1
  Cl  Cl2073  1  0.234558  0.217069  0.167685  1
  Cl  Cl2074  1  0.234558  0.217069  0.667685  1
  Cl  Cl2075  1  0.234558  0.717070  0.167685  1
  Cl  Cl2076  1  0.234558  0.717070  0.667685  1
  Cl  Cl2077  1  0.734558  0.217069  0.167685  1
  Cl  Cl2078  1  0.734558  0.217069  0.667685  1
  Cl  Cl2079  1  0.734558  0.717070  0.167685  1
  Cl  Cl2080  1  0.734558  0.717070  0.667685  1
  Cl  Cl2081  1  0.272304  0.237351  0.227990  1
  Cl  Cl2082  1  0.272304  0.237351  0.727990  1
  Cl  Cl2083  1  0.272304  0.737351  0.227990  1
  Cl  Cl2084  1  0.272304  0.737351  0.727990  1
  Cl  Cl2085  1  0.772304  0.237351  0.227990  1
  Cl  Cl2086  1  0.772304  0.237351  0.727990  1
  Cl  Cl2087  1  0.772304  0.737351  0.227990  1
  Cl  Cl2088  1  0.772304  0.737351  0.727990  1
  Cl  Cl2089  1  0.413681  0.288752  0.241100  1
  Cl  Cl2090  1  0.413681  0.288752  0.741100  1
  Cl  Cl2091  1  0.413681  0.788752  0.241100  1
  Cl  Cl2092  1  0.413681  0.788752  0.741100  1
  Cl  Cl2093  1  0.913681  0.288752  0.241100  1
  Cl  Cl2094  1  0.913681  0.288752  0.741100  1
  Cl  Cl2095  1  0.913681  0.788752  0.241100  1
  Cl  Cl2096  1  0.913681  0.788752  0.741100  1
  Cl  Cl2097  1  0.221442  0.321258  0.391575  1
  Cl  Cl2098  1  0.221442  0.321258  0.891575  1
  Cl  Cl2099  1  0.221442  0.821258  0.391575  1
  Cl  Cl2100  1  0.221442  0.821258  0.891575  1
  Cl  Cl2101  1  0.721443  0.321258  0.391575  1
  Cl  Cl2102  1  0.721443  0.321258  0.891575  1
  Cl  Cl2103  1  0.721442  0.821258  0.391575  1
  Cl  Cl2104  1  0.721442  0.821258  0.891575  1
  Cl  Cl2105  1  0.208274  0.222414  0.311100  1
  Cl  Cl2106  1  0.208274  0.222414  0.811100  1
  Cl  Cl2107  1  0.208274  0.722414  0.311100  1
  Cl  Cl2108  1  0.208274  0.722414  0.811100  1
  Cl  Cl2109  1  0.708274  0.222414  0.311100  1
  Cl  Cl2110  1  0.708274  0.222414  0.811100  1
  Cl  Cl2111  1  0.708274  0.722414  0.311100  1
  Cl  Cl2112  1  0.708274  0.722414  0.811100  1
  Cl  Cl2113  1  0.119951  0.222084  0.311200  1
  Cl  Cl2114  1  0.119951  0.222084  0.811200  1
  Cl  Cl2115  1  0.119951  0.722085  0.311200  1
  Cl  Cl2116  1  0.119951  0.722085  0.811200  1
  Cl  Cl2117  1  0.619951  0.222084  0.311200  1
  Cl  Cl2118  1  0.619951  0.222084  0.811200  1
  Cl  Cl2119  1  0.619951  0.722085  0.311200  1
  Cl  Cl2120  1  0.619951  0.722085  0.811200  1
  Cl  Cl2121  1  0.132985  0.325553  0.394890  1
  Cl  Cl2122  1  0.132985  0.325553  0.894890  1
  Cl  Cl2123  1  0.132985  0.825553  0.394890  1
  Cl  Cl2124  1  0.132985  0.825553  0.894890  1
  Cl  Cl2125  1  0.632985  0.325553  0.394890  1
  Cl  Cl2126  1  0.632985  0.325553  0.894890  1
  Cl  Cl2127  1  0.632984  0.825553  0.394890  1
  Cl  Cl2128  1  0.632984  0.825553  0.894890  1
  Cl  Cl2129  1  0.056182  0.213450  0.353635  1
  Cl  Cl2130  1  0.056182  0.213450  0.853635  1
  Cl  Cl2131  1  0.056182  0.713450  0.353635  1
  Cl  Cl2132  1  0.056182  0.713450  0.853635  1
  Cl  Cl2133  1  0.556181  0.213450  0.353635  1
  Cl  Cl2134  1  0.556181  0.213450  0.853635  1
  Cl  Cl2135  1  0.556181  0.713450  0.353635  1
  Cl  Cl2136  1  0.556181  0.713450  0.853635  1
  Cl  Cl2137  1  0.061239  0.335002  0.358250  1
  Cl  Cl2138  1  0.061239  0.335002  0.858250  1
  Cl  Cl2139  1  0.061240  0.835002  0.358250  1
  Cl  Cl2140  1  0.061240  0.835002  0.858250  1
  Cl  Cl2141  1  0.561240  0.335002  0.358250  1
  Cl  Cl2142  1  0.561240  0.335002  0.858250  1
  Cl  Cl2143  1  0.561239  0.835002  0.358250  1
  Cl  Cl2144  1  0.561239  0.835002  0.858250  1
  Cl  Cl2145  1  0.472494  0.332725  0.360960  1
  Cl  Cl2146  1  0.472494  0.332725  0.860960  1
  Cl  Cl2147  1  0.472494  0.832725  0.360960  1
  Cl  Cl2148  1  0.472494  0.832725  0.860960  1
  Cl  Cl2149  1  0.972494  0.332725  0.360960  1
  Cl  Cl2150  1  0.972494  0.332725  0.860960  1
  Cl  Cl2151  1  0.972494  0.832725  0.360960  1
  Cl  Cl2152  1  0.972494  0.832725  0.860960  1
  Cl  Cl2153  1  0.467379  0.216530  0.356410  1
  Cl  Cl2154  1  0.467379  0.216530  0.856410  1
  Cl  Cl2155  1  0.467379  0.716530  0.356410  1
  Cl  Cl2156  1  0.467379  0.716530  0.856410  1
  Cl  Cl2157  1  0.967379  0.216530  0.356410  1
  Cl  Cl2158  1  0.967379  0.216530  0.856410  1
  Cl  Cl2159  1  0.967379  0.716530  0.356410  1
  Cl  Cl2160  1  0.967379  0.716530  0.856410  1
