# generated using pymatgen
data_Na6Li12Mg12Be6Al(Si3Cl)4
_symmetry_space_group_name_H-M   'P 1'
_cell_length_a   36.81400000
_cell_length_b   36.83200000
_cell_length_c   36.82200000
_cell_angle_alpha   60.32800000
_cell_angle_beta   60.25100000
_cell_angle_gamma   60.28300000
_symmetry_Int_Tables_number   1
_chemical_formula_structural   Na6Li12Mg12Be6Al(Si3Cl)4
_chemical_formula_sum   'Na96 Li192 Mg192 Be96 Al16 Si192 Cl64'
_cell_volume   35534.09180265
_cell_formula_units_Z   16
loop_
 _symmetry_equiv_pos_site_id
 _symmetry_equiv_pos_as_xyz
  1  'x, y, z'
loop_
 _atom_site_type_symbol
 _atom_site_label
 _atom_site_symmetry_multiplicity
 _atom_site_fract_x
 _atom_site_fract_y
 _atom_site_fract_z
 _atom_site_occupancy
  Na  Na1  1  0.026915  0.223154  0.223175  1
  Na  Na2  1  0.026915  0.223154  0.723175  1
  Na  Na3  1  0.026916  0.723154  0.223175  1
  Na  Na4  1  0.026916  0.723154  0.723175  1
  Na  Na5  1  0.526915  0.223154  0.223175  1
  Na  Na6  1  0.526915  0.223154  0.723175  1
  Na  Na7  1  0.526916  0.723154  0.223175  1
  Na  Na8  1  0.526916  0.723154  0.723175  1
  Na  Na9  1  0.223077  0.026821  0.026800  1
  Na  Na10  1  0.223077  0.026821  0.526800  1
  Na  Na11  1  0.223077  0.526821  0.026800  1
  Na  Na12  1  0.223077  0.526821  0.526800  1
  Na  Na13  1  0.723076  0.026821  0.026800  1
  Na  Na14  1  0.723076  0.026821  0.526800  1
  Na  Na15  1  0.723077  0.526821  0.026800  1
  Na  Na16  1  0.723077  0.526821  0.526800  1
  Na  Na17  1  0.026790  0.223067  0.026800  1
  Na  Na18  1  0.026790  0.223067  0.526800  1
  Na  Na19  1  0.026789  0.723067  0.026800  1
  Na  Na20  1  0.026789  0.723067  0.526800  1
  Na  Na21  1  0.526790  0.223067  0.026800  1
  Na  Na22  1  0.526790  0.223067  0.526800  1
  Na  Na23  1  0.526790  0.723067  0.026800  1
  Na  Na24  1  0.526790  0.723067  0.526800  1
  Na  Na25  1  0.223210  0.026912  0.223175  1
  Na  Na26  1  0.223210  0.026912  0.723175  1
  Na  Na27  1  0.223210  0.526911  0.223175  1
  Na  Na28  1  0.223210  0.526911  0.723175  1
  Na  Na29  1  0.723210  0.026912  0.223175  1
  Na  Na30  1  0.723210  0.026912  0.723175  1
  Na  Na31  1  0.723210  0.526911  0.223175  1
  Na  Na32  1  0.723210  0.526911  0.723175  1
  Na  Na33  1  0.026788  0.026821  0.223070  1
  Na  Na34  1  0.026788  0.026821  0.723070  1
  Na  Na35  1  0.026788  0.526820  0.223070  1
  Na  Na36  1  0.026788  0.526820  0.723070  1
  Na  Na37  1  0.526788  0.026821  0.223070  1
  Na  Na38  1  0.526788  0.026821  0.723070  1
  Na  Na39  1  0.526788  0.526820  0.223070  1
  Na  Na40  1  0.526788  0.526820  0.723070  1
  Na  Na41  1  0.223213  0.223151  0.026905  1
  Na  Na42  1  0.223213  0.223151  0.526905  1
  Na  Na43  1  0.223213  0.723151  0.026905  1
  Na  Na44  1  0.223213  0.723151  0.526905  1
  Na  Na45  1  0.723213  0.223151  0.026905  1
  Na  Na46  1  0.723213  0.223151  0.526905  1
  Na  Na47  1  0.723213  0.723151  0.026905  1
  Na  Na48  1  0.723213  0.723151  0.526905  1
  Na  Na49  1  0.276798  0.473087  0.276820  1
  Na  Na50  1  0.276798  0.473087  0.776820  1
  Na  Na51  1  0.276798  0.973086  0.276820  1
  Na  Na52  1  0.276798  0.973086  0.776820  1
  Na  Na53  1  0.776798  0.473087  0.276820  1
  Na  Na54  1  0.776798  0.473087  0.776820  1
  Na  Na55  1  0.776798  0.973086  0.276820  1
  Na  Na56  1  0.776798  0.973086  0.776820  1
  Na  Na57  1  0.473221  0.276932  0.473150  1
  Na  Na58  1  0.473221  0.276932  0.973150  1
  Na  Na59  1  0.473220  0.776932  0.473150  1
  Na  Na60  1  0.473220  0.776932  0.973150  1
  Na  Na61  1  0.973220  0.276932  0.473150  1
  Na  Na62  1  0.973220  0.276932  0.973150  1
  Na  Na63  1  0.973221  0.776932  0.473150  1
  Na  Na64  1  0.973221  0.776932  0.973150  1
  Na  Na65  1  0.276936  0.473176  0.473150  1
  Na  Na66  1  0.276936  0.473176  0.973150  1
  Na  Na67  1  0.276936  0.973176  0.473150  1
  Na  Na68  1  0.276936  0.973176  0.973150  1
  Na  Na69  1  0.776936  0.473176  0.473150  1
  Na  Na70  1  0.776936  0.473176  0.973150  1
  Na  Na71  1  0.776936  0.973176  0.473150  1
  Na  Na72  1  0.776936  0.973176  0.973150  1
  Na  Na73  1  0.473093  0.276846  0.276815  1
  Na  Na74  1  0.473093  0.276846  0.776815  1
  Na  Na75  1  0.473094  0.776847  0.276815  1
  Na  Na76  1  0.473094  0.776847  0.776815  1
  Na  Na77  1  0.973094  0.276846  0.276815  1
  Na  Na78  1  0.973094  0.276846  0.776815  1
  Na  Na79  1  0.973094  0.776847  0.276815  1
  Na  Na80  1  0.973094  0.776847  0.776815  1
  Na  Na81  1  0.473222  0.473176  0.276925  1
  Na  Na82  1  0.473222  0.473176  0.776925  1
  Na  Na83  1  0.473222  0.973176  0.276925  1
  Na  Na84  1  0.473222  0.973176  0.776925  1
  Na  Na85  1  0.973222  0.473176  0.276925  1
  Na  Na86  1  0.973222  0.473176  0.776925  1
  Na  Na87  1  0.973222  0.973176  0.276925  1
  Na  Na88  1  0.973222  0.973176  0.776925  1
  Na  Na89  1  0.276795  0.276848  0.473085  1
  Na  Na90  1  0.276795  0.276848  0.973085  1
  Na  Na91  1  0.276795  0.776848  0.473085  1
  Na  Na92  1  0.276795  0.776848  0.973085  1
  Na  Na93  1  0.776795  0.276848  0.473085  1
  Na  Na94  1  0.776795  0.276848  0.973085  1
  Na  Na95  1  0.776795  0.776848  0.473085  1
  Na  Na96  1  0.776795  0.776848  0.973085  1
  Li  Li97  1  0.046164  0.236834  0.236850  1
  Li  Li98  1  0.046164  0.236834  0.736850  1
  Li  Li99  1  0.046164  0.736834  0.236850  1
  Li  Li100  1  0.046164  0.736834  0.736850  1
  Li  Li101  1  0.546164  0.236834  0.236850  1
  Li  Li102  1  0.546164  0.236834  0.736850  1
  Li  Li103  1  0.546165  0.736834  0.236850  1
  Li  Li104  1  0.546165  0.736834  0.736850  1
  Li  Li105  1  0.236646  0.046116  0.480500  1
  Li  Li106  1  0.236646  0.046116  0.980500  1
  Li  Li107  1  0.236646  0.546117  0.480500  1
  Li  Li108  1  0.236646  0.546117  0.980500  1
  Li  Li109  1  0.736646  0.046116  0.480500  1
  Li  Li110  1  0.736646  0.046116  0.980500  1
  Li  Li111  1  0.736646  0.546117  0.480500  1
  Li  Li112  1  0.736646  0.546117  0.980500  1
  Li  Li113  1  0.236614  0.480539  0.046140  1
  Li  Li114  1  0.236614  0.480539  0.546140  1
  Li  Li115  1  0.236613  0.980540  0.046140  1
  Li  Li116  1  0.236613  0.980540  0.546140  1
  Li  Li117  1  0.736614  0.480539  0.046140  1
  Li  Li118  1  0.736614  0.480539  0.546140  1
  Li  Li119  1  0.736614  0.980540  0.046140  1
  Li  Li120  1  0.736614  0.980540  0.546140  1
  Li  Li121  1  0.480585  0.236492  0.236500  1
  Li  Li122  1  0.480585  0.236492  0.736500  1
  Li  Li123  1  0.480585  0.736492  0.236500  1
  Li  Li124  1  0.480585  0.736492  0.736500  1
  Li  Li125  1  0.980585  0.236492  0.236500  1
  Li  Li126  1  0.980585  0.236492  0.736500  1
  Li  Li127  1  0.980585  0.736492  0.236500  1
  Li  Li128  1  0.980585  0.736492  0.736500  1
  Li  Li129  1  0.046175  0.236612  0.480490  1
  Li  Li130  1  0.046175  0.236612  0.980490  1
  Li  Li131  1  0.046175  0.736611  0.480490  1
  Li  Li132  1  0.046175  0.736611  0.980490  1
  Li  Li133  1  0.546175  0.236612  0.480490  1
  Li  Li134  1  0.546175  0.236612  0.980490  1
  Li  Li135  1  0.546175  0.736611  0.480490  1
  Li  Li136  1  0.546175  0.736611  0.980490  1
  Li  Li137  1  0.236480  0.480623  0.236465  1
  Li  Li138  1  0.236480  0.480623  0.736465  1
  Li  Li139  1  0.236480  0.980623  0.236465  1
  Li  Li140  1  0.236480  0.980623  0.736465  1
  Li  Li141  1  0.736480  0.480623  0.236465  1
  Li  Li142  1  0.736480  0.480623  0.736465  1
  Li  Li143  1  0.736480  0.980623  0.236465  1
  Li  Li144  1  0.736480  0.980623  0.736465  1
  Li  Li145  1  0.236911  0.046108  0.236885  1
  Li  Li146  1  0.236911  0.046108  0.736885  1
  Li  Li147  1  0.236911  0.546107  0.236885  1
  Li  Li148  1  0.236911  0.546107  0.736885  1
  Li  Li149  1  0.736911  0.046108  0.236885  1
  Li  Li150  1  0.736911  0.046108  0.736885  1
  Li  Li151  1  0.736911  0.546107  0.236885  1
  Li  Li152  1  0.736911  0.546107  0.736885  1
  Li  Li153  1  0.480455  0.236641  0.046140  1
  Li  Li154  1  0.480455  0.236641  0.546140  1
  Li  Li155  1  0.480455  0.736641  0.046140  1
  Li  Li156  1  0.480455  0.736641  0.546140  1
  Li  Li157  1  0.980455  0.236641  0.046140  1
  Li  Li158  1  0.980455  0.236641  0.546140  1
  Li  Li159  1  0.980455  0.736641  0.046140  1
  Li  Li160  1  0.980455  0.736641  0.546140  1
  Li  Li161  1  0.046175  0.480535  0.236590  1
  Li  Li162  1  0.046175  0.480535  0.736590  1
  Li  Li163  1  0.046175  0.980536  0.236590  1
  Li  Li164  1  0.046175  0.980536  0.736590  1
  Li  Li165  1  0.546175  0.480535  0.236590  1
  Li  Li166  1  0.546175  0.480535  0.736590  1
  Li  Li167  1  0.546175  0.980536  0.236590  1
  Li  Li168  1  0.546175  0.980536  0.736590  1
  Li  Li169  1  0.236895  0.236854  0.046130  1
  Li  Li170  1  0.236895  0.236854  0.546130  1
  Li  Li171  1  0.236894  0.736854  0.046130  1
  Li  Li172  1  0.236894  0.736854  0.546130  1
  Li  Li173  1  0.736895  0.236854  0.046130  1
  Li  Li174  1  0.736895  0.236854  0.546130  1
  Li  Li175  1  0.736895  0.736854  0.046130  1
  Li  Li176  1  0.736895  0.736854  0.546130  1
  Li  Li177  1  0.236498  0.236480  0.480600  1
  Li  Li178  1  0.236498  0.236480  0.980600  1
  Li  Li179  1  0.236497  0.736480  0.480600  1
  Li  Li180  1  0.236497  0.736480  0.980600  1
  Li  Li181  1  0.736498  0.236480  0.480600  1
  Li  Li182  1  0.736498  0.236480  0.980600  1
  Li  Li183  1  0.736498  0.736480  0.480600  1
  Li  Li184  1  0.736498  0.736480  0.980600  1
  Li  Li185  1  0.480455  0.046115  0.236655  1
  Li  Li186  1  0.480455  0.046115  0.736655  1
  Li  Li187  1  0.480455  0.546114  0.236655  1
  Li  Li188  1  0.480455  0.546114  0.736655  1
  Li  Li189  1  0.980455  0.046115  0.236655  1
  Li  Li190  1  0.980455  0.046115  0.736655  1
  Li  Li191  1  0.980455  0.546114  0.236655  1
  Li  Li192  1  0.980455  0.546114  0.736655  1
  Li  Li193  1  0.263100  0.453890  0.263100  1
  Li  Li194  1  0.263100  0.453890  0.763100  1
  Li  Li195  1  0.263100  0.953890  0.263100  1
  Li  Li196  1  0.263100  0.953890  0.763100  1
  Li  Li197  1  0.763100  0.453890  0.263100  1
  Li  Li198  1  0.763100  0.453890  0.763100  1
  Li  Li199  1  0.763100  0.953890  0.263100  1
  Li  Li200  1  0.763100  0.953890  0.763100  1
  Li  Li201  1  0.453835  0.263385  0.019500  1
  Li  Li202  1  0.453835  0.263385  0.519500  1
  Li  Li203  1  0.453835  0.763385  0.019500  1
  Li  Li204  1  0.453835  0.763385  0.519500  1
  Li  Li205  1  0.953835  0.263385  0.019500  1
  Li  Li206  1  0.953835  0.263385  0.519500  1
  Li  Li207  1  0.953835  0.763385  0.019500  1
  Li  Li208  1  0.953835  0.763385  0.519500  1
  Li  Li209  1  0.019555  0.263356  0.453855  1
  Li  Li210  1  0.019555  0.263356  0.953855  1
  Li  Li211  1  0.019556  0.763356  0.453855  1
  Li  Li212  1  0.019556  0.763356  0.953855  1
  Li  Li213  1  0.519556  0.263356  0.453855  1
  Li  Li214  1  0.519556  0.263356  0.953855  1
  Li  Li215  1  0.519556  0.763356  0.453855  1
  Li  Li216  1  0.519556  0.763356  0.953855  1
  Li  Li217  1  0.263531  0.019375  0.263530  1
  Li  Li218  1  0.263531  0.019375  0.763530  1
  Li  Li219  1  0.263531  0.519375  0.263530  1
  Li  Li220  1  0.263531  0.519375  0.763530  1
  Li  Li221  1  0.763531  0.019375  0.263530  1
  Li  Li222  1  0.763531  0.019375  0.763530  1
  Li  Li223  1  0.763531  0.519375  0.263530  1
  Li  Li224  1  0.763531  0.519375  0.763530  1
  Li  Li225  1  0.263360  0.453881  0.019495  1
  Li  Li226  1  0.263360  0.453881  0.519495  1
  Li  Li227  1  0.263360  0.953881  0.019495  1
  Li  Li228  1  0.263360  0.953881  0.519495  1
  Li  Li229  1  0.763360  0.453881  0.019495  1
  Li  Li230  1  0.763360  0.453881  0.519495  1
  Li  Li231  1  0.763361  0.953881  0.019495  1
  Li  Li232  1  0.763361  0.953881  0.519495  1
  Li  Li233  1  0.019424  0.263502  0.263495  1
  Li  Li234  1  0.019424  0.263502  0.763495  1
  Li  Li235  1  0.019425  0.763502  0.263495  1
  Li  Li236  1  0.019425  0.763502  0.763495  1
  Li  Li237  1  0.519425  0.263502  0.263495  1
  Li  Li238  1  0.519425  0.263502  0.763495  1
  Li  Li239  1  0.519425  0.763502  0.263495  1
  Li  Li240  1  0.519425  0.763502  0.763495  1
  Li  Li241  1  0.453845  0.263159  0.263145  1
  Li  Li242  1  0.453845  0.263159  0.763145  1
  Li  Li243  1  0.453845  0.763159  0.263145  1
  Li  Li244  1  0.453845  0.763159  0.763145  1
  Li  Li245  1  0.953845  0.263159  0.263145  1
  Li  Li246  1  0.953845  0.263159  0.763145  1
  Li  Li247  1  0.953845  0.763159  0.263145  1
  Li  Li248  1  0.953845  0.763159  0.763145  1
  Li  Li249  1  0.263394  0.019458  0.453855  1
  Li  Li250  1  0.263394  0.019458  0.953855  1
  Li  Li251  1  0.263394  0.519458  0.453855  1
  Li  Li252  1  0.263394  0.519458  0.953855  1
  Li  Li253  1  0.763394  0.019458  0.453855  1
  Li  Li254  1  0.763394  0.019458  0.953855  1
  Li  Li255  1  0.763394  0.519458  0.453855  1
  Li  Li256  1  0.763394  0.519458  0.953855  1
  Li  Li257  1  0.019555  0.453883  0.263335  1
  Li  Li258  1  0.019555  0.453883  0.763335  1
  Li  Li259  1  0.019555  0.953883  0.263335  1
  Li  Li260  1  0.019555  0.953883  0.763335  1
  Li  Li261  1  0.519555  0.453883  0.263335  1
  Li  Li262  1  0.519555  0.453883  0.763335  1
  Li  Li263  1  0.519555  0.953883  0.263335  1
  Li  Li264  1  0.519555  0.953883  0.763335  1
  Li  Li265  1  0.263117  0.263142  0.453865  1
  Li  Li266  1  0.263117  0.263142  0.953865  1
  Li  Li267  1  0.263117  0.763142  0.453865  1
  Li  Li268  1  0.263117  0.763142  0.953865  1
  Li  Li269  1  0.763117  0.263142  0.453865  1
  Li  Li270  1  0.763117  0.263142  0.953865  1
  Li  Li271  1  0.763117  0.763142  0.453865  1
  Li  Li272  1  0.763117  0.763142  0.953865  1
  Li  Li273  1  0.263514  0.263516  0.019395  1
  Li  Li274  1  0.263514  0.263516  0.519395  1
  Li  Li275  1  0.263513  0.763516  0.019395  1
  Li  Li276  1  0.263513  0.763516  0.519395  1
  Li  Li277  1  0.763513  0.263516  0.019395  1
  Li  Li278  1  0.763513  0.263516  0.519395  1
  Li  Li279  1  0.763514  0.763516  0.019395  1
  Li  Li280  1  0.763514  0.763516  0.519395  1
  Li  Li281  1  0.453835  0.019462  0.263400  1
  Li  Li282  1  0.453835  0.019462  0.763400  1
  Li  Li283  1  0.453835  0.519462  0.263400  1
  Li  Li284  1  0.453835  0.519462  0.763400  1
  Li  Li285  1  0.953835  0.019462  0.263400  1
  Li  Li286  1  0.953835  0.019462  0.763400  1
  Li  Li287  1  0.953835  0.519462  0.263400  1
  Li  Li288  1  0.953835  0.519462  0.763400  1
  Mg  Mg289  1  0.082154  0.226239  0.226260  1
  Mg  Mg290  1  0.082154  0.226239  0.726260  1
  Mg  Mg291  1  0.082154  0.726238  0.226260  1
  Mg  Mg292  1  0.082154  0.726238  0.726260  1
  Mg  Mg293  1  0.582154  0.226239  0.226260  1
  Mg  Mg294  1  0.582154  0.226239  0.726260  1
  Mg  Mg295  1  0.582154  0.726238  0.226260  1
  Mg  Mg296  1  0.582154  0.726238  0.726260  1
  Mg  Mg297  1  0.225886  0.082063  0.466000  1
  Mg  Mg298  1  0.225886  0.082063  0.966000  1
  Mg  Mg299  1  0.225886  0.582063  0.466000  1
  Mg  Mg300  1  0.225886  0.582063  0.966000  1
  Mg  Mg301  1  0.725886  0.082063  0.466000  1
  Mg  Mg302  1  0.725886  0.082063  0.966000  1
  Mg  Mg303  1  0.725886  0.582063  0.466000  1
  Mg  Mg304  1  0.725886  0.582063  0.966000  1
  Mg  Mg305  1  0.225826  0.466079  0.082110  1
  Mg  Mg306  1  0.225826  0.466079  0.582110  1
  Mg  Mg307  1  0.225826  0.966079  0.082110  1
  Mg  Mg308  1  0.225826  0.966079  0.582110  1
  Mg  Mg309  1  0.725826  0.466079  0.082110  1
  Mg  Mg310  1  0.725826  0.466079  0.582110  1
  Mg  Mg311  1  0.725826  0.966079  0.082110  1
  Mg  Mg312  1  0.725826  0.966079  0.582110  1
  Mg  Mg313  1  0.466120  0.225626  0.225600  1
  Mg  Mg314  1  0.466120  0.225626  0.725600  1
  Mg  Mg315  1  0.466120  0.725626  0.225600  1
  Mg  Mg316  1  0.466120  0.725626  0.725600  1
  Mg  Mg317  1  0.966120  0.225626  0.225600  1
  Mg  Mg318  1  0.966120  0.225626  0.725600  1
  Mg  Mg319  1  0.966120  0.725626  0.225600  1
  Mg  Mg320  1  0.966120  0.725626  0.725600  1
  Mg  Mg321  1  0.082172  0.225830  0.465975  1
  Mg  Mg322  1  0.082172  0.225830  0.965975  1
  Mg  Mg323  1  0.082172  0.725830  0.465975  1
  Mg  Mg324  1  0.082172  0.725830  0.965975  1
  Mg  Mg325  1  0.582172  0.225830  0.465975  1
  Mg  Mg326  1  0.582172  0.225830  0.965975  1
  Mg  Mg327  1  0.582173  0.725830  0.465975  1
  Mg  Mg328  1  0.582173  0.725830  0.965975  1
  Mg  Mg329  1  0.225595  0.466197  0.225580  1
  Mg  Mg330  1  0.225595  0.466197  0.725580  1
  Mg  Mg331  1  0.225595  0.966197  0.225580  1
  Mg  Mg332  1  0.225595  0.966197  0.725580  1
  Mg  Mg333  1  0.725595  0.466197  0.225580  1
  Mg  Mg334  1  0.725595  0.466197  0.725580  1
  Mg  Mg335  1  0.725595  0.966197  0.225580  1
  Mg  Mg336  1  0.725595  0.966197  0.725580  1
  Mg  Mg337  1  0.226365  0.082050  0.226300  1
  Mg  Mg338  1  0.226365  0.082050  0.726300  1
  Mg  Mg339  1  0.226366  0.582051  0.226300  1
  Mg  Mg340  1  0.226366  0.582051  0.726300  1
  Mg  Mg341  1  0.726365  0.082050  0.226300  1
  Mg  Mg342  1  0.726365  0.082050  0.726300  1
  Mg  Mg343  1  0.726365  0.582051  0.226300  1
  Mg  Mg344  1  0.726365  0.582051  0.726300  1
  Mg  Mg345  1  0.465898  0.225889  0.082110  1
  Mg  Mg346  1  0.465898  0.225889  0.582110  1
  Mg  Mg347  1  0.465898  0.725889  0.082110  1
  Mg  Mg348  1  0.465898  0.725889  0.582110  1
  Mg  Mg349  1  0.965898  0.225889  0.082110  1
  Mg  Mg350  1  0.965898  0.225889  0.582110  1
  Mg  Mg351  1  0.965898  0.725889  0.082110  1
  Mg  Mg352  1  0.965898  0.725889  0.582110  1
  Mg  Mg353  1  0.082173  0.466062  0.225795  1
  Mg  Mg354  1  0.082173  0.466062  0.725795  1
  Mg  Mg355  1  0.082173  0.966062  0.225795  1
  Mg  Mg356  1  0.082173  0.966062  0.725795  1
  Mg  Mg357  1  0.582172  0.466062  0.225795  1
  Mg  Mg358  1  0.582172  0.466062  0.725795  1
  Mg  Mg359  1  0.582172  0.966062  0.225795  1
  Mg  Mg360  1  0.582172  0.966062  0.725795  1
  Mg  Mg361  1  0.226334  0.226275  0.082095  1
  Mg  Mg362  1  0.226334  0.226275  0.582095  1
  Mg  Mg363  1  0.226334  0.726275  0.082095  1
  Mg  Mg364  1  0.226334  0.726275  0.582095  1
  Mg  Mg365  1  0.726334  0.226275  0.082095  1
  Mg  Mg366  1  0.726334  0.226275  0.582095  1
  Mg  Mg367  1  0.726334  0.726275  0.082095  1
  Mg  Mg368  1  0.726334  0.726275  0.582095  1
  Mg  Mg369  1  0.225627  0.225602  0.466150  1
  Mg  Mg370  1  0.225627  0.225602  0.966150  1
  Mg  Mg371  1  0.225627  0.725602  0.466150  1
  Mg  Mg372  1  0.225627  0.725602  0.966150  1
  Mg  Mg373  1  0.725627  0.225602  0.466150  1
  Mg  Mg374  1  0.725627  0.225602  0.966150  1
  Mg  Mg375  1  0.725627  0.725602  0.466150  1
  Mg  Mg376  1  0.725627  0.725602  0.966150  1
  Mg  Mg377  1  0.465902  0.082062  0.225920  1
  Mg  Mg378  1  0.465902  0.082062  0.725920  1
  Mg  Mg379  1  0.465902  0.582062  0.225920  1
  Mg  Mg380  1  0.465902  0.582062  0.725920  1
  Mg  Mg381  1  0.965902  0.082062  0.225920  1
  Mg  Mg382  1  0.965902  0.082062  0.725920  1
  Mg  Mg383  1  0.965903  0.582062  0.225920  1
  Mg  Mg384  1  0.965903  0.582062  0.725920  1
  Mg  Mg385  1  0.273644  0.417948  0.273660  1
  Mg  Mg386  1  0.273644  0.417948  0.773660  1
  Mg  Mg387  1  0.273644  0.917947  0.273660  1
  Mg  Mg388  1  0.273644  0.917947  0.773660  1
  Mg  Mg389  1  0.773644  0.417948  0.273660  1
  Mg  Mg390  1  0.773644  0.417948  0.773660  1
  Mg  Mg391  1  0.773644  0.917947  0.273660  1
  Mg  Mg392  1  0.773644  0.917947  0.773660  1
  Mg  Mg393  1  0.417837  0.274168  0.034020  1
  Mg  Mg394  1  0.417837  0.274168  0.534020  1
  Mg  Mg395  1  0.417838  0.774168  0.034020  1
  Mg  Mg396  1  0.417838  0.774168  0.534020  1
  Mg  Mg397  1  0.917837  0.274168  0.034020  1
  Mg  Mg398  1  0.917837  0.274168  0.534020  1
  Mg  Mg399  1  0.917837  0.774168  0.034020  1
  Mg  Mg400  1  0.917837  0.774168  0.534020  1
  Mg  Mg401  1  0.034112  0.274108  0.417885  1
  Mg  Mg402  1  0.034112  0.274108  0.917885  1
  Mg  Mg403  1  0.034112  0.774108  0.417885  1
  Mg  Mg404  1  0.034112  0.774108  0.917885  1
  Mg  Mg405  1  0.534112  0.274108  0.417885  1
  Mg  Mg406  1  0.534112  0.274108  0.917885  1
  Mg  Mg407  1  0.534112  0.774108  0.417885  1
  Mg  Mg408  1  0.534112  0.774108  0.917885  1
  Mg  Mg409  1  0.274415  0.033801  0.274415  1
  Mg  Mg410  1  0.274415  0.033801  0.774415  1
  Mg  Mg411  1  0.274415  0.533801  0.274415  1
  Mg  Mg412  1  0.274415  0.533801  0.774415  1
  Mg  Mg413  1  0.774415  0.033801  0.274415  1
  Mg  Mg414  1  0.774415  0.033801  0.774415  1
  Mg  Mg415  1  0.774415  0.533801  0.274415  1
  Mg  Mg416  1  0.774415  0.533801  0.774415  1
  Mg  Mg417  1  0.274122  0.417934  0.033995  1
  Mg  Mg418  1  0.274122  0.417934  0.533995  1
  Mg  Mg419  1  0.274122  0.917934  0.033995  1
  Mg  Mg420  1  0.274122  0.917934  0.533995  1
  Mg  Mg421  1  0.774122  0.417934  0.033995  1
  Mg  Mg422  1  0.774122  0.417934  0.533995  1
  Mg  Mg423  1  0.774122  0.917934  0.033995  1
  Mg  Mg424  1  0.774122  0.917934  0.533995  1
  Mg  Mg425  1  0.033889  0.274370  0.274360  1
  Mg  Mg426  1  0.033889  0.274370  0.774360  1
  Mg  Mg427  1  0.033889  0.774370  0.274360  1
  Mg  Mg428  1  0.033889  0.774370  0.774360  1
  Mg  Mg429  1  0.533889  0.274370  0.274360  1
  Mg  Mg430  1  0.533889  0.274370  0.774360  1
  Mg  Mg431  1  0.533889  0.774370  0.274360  1
  Mg  Mg432  1  0.533889  0.774370  0.774360  1
  Mg  Mg433  1  0.417855  0.273757  0.273735  1
  Mg  Mg434  1  0.417855  0.273757  0.773735  1
  Mg  Mg435  1  0.417855  0.773757  0.273735  1
  Mg  Mg436  1  0.417855  0.773757  0.773735  1
  Mg  Mg437  1  0.917855  0.273757  0.273735  1
  Mg  Mg438  1  0.917855  0.273757  0.773735  1
  Mg  Mg439  1  0.917855  0.773757  0.273735  1
  Mg  Mg440  1  0.917855  0.773757  0.773735  1
  Mg  Mg441  1  0.274183  0.033919  0.417885  1
  Mg  Mg442  1  0.274183  0.033919  0.917885  1
  Mg  Mg443  1  0.274183  0.533919  0.417885  1
  Mg  Mg444  1  0.274183  0.533919  0.917885  1
  Mg  Mg445  1  0.774183  0.033919  0.417885  1
  Mg  Mg446  1  0.774183  0.033919  0.917885  1
  Mg  Mg447  1  0.774183  0.533919  0.417885  1
  Mg  Mg448  1  0.774183  0.533919  0.917885  1
  Mg  Mg449  1  0.034107  0.417936  0.274075  1
  Mg  Mg450  1  0.034107  0.417936  0.774075  1
  Mg  Mg451  1  0.034107  0.917936  0.274075  1
  Mg  Mg452  1  0.034107  0.917936  0.774075  1
  Mg  Mg453  1  0.534107  0.417936  0.274075  1
  Mg  Mg454  1  0.534107  0.417936  0.774075  1
  Mg  Mg455  1  0.534107  0.917936  0.274075  1
  Mg  Mg456  1  0.534107  0.917936  0.774075  1
  Mg  Mg457  1  0.273676  0.273721  0.417900  1
  Mg  Mg458  1  0.273676  0.273721  0.917900  1
  Mg  Mg459  1  0.273676  0.773722  0.417900  1
  Mg  Mg460  1  0.273676  0.773722  0.917900  1
  Mg  Mg461  1  0.773676  0.273721  0.417900  1
  Mg  Mg462  1  0.773676  0.273721  0.917900  1
  Mg  Mg463  1  0.773676  0.773722  0.417900  1
  Mg  Mg464  1  0.773676  0.773722  0.917900  1
  Mg  Mg465  1  0.274383  0.274395  0.033845  1
  Mg  Mg466  1  0.274383  0.274395  0.533845  1
  Mg  Mg467  1  0.274383  0.774396  0.033845  1
  Mg  Mg468  1  0.274383  0.774396  0.533845  1
  Mg  Mg469  1  0.774383  0.274395  0.033845  1
  Mg  Mg470  1  0.774383  0.274395  0.533845  1
  Mg  Mg471  1  0.774383  0.774396  0.033845  1
  Mg  Mg472  1  0.774383  0.774396  0.533845  1
  Mg  Mg473  1  0.417837  0.033936  0.274200  1
  Mg  Mg474  1  0.417837  0.033936  0.774200  1
  Mg  Mg475  1  0.417837  0.533936  0.274200  1
  Mg  Mg476  1  0.417837  0.533936  0.774200  1
  Mg  Mg477  1  0.917837  0.033936  0.274200  1
  Mg  Mg478  1  0.917837  0.033936  0.774200  1
  Mg  Mg479  1  0.917838  0.533936  0.274200  1
  Mg  Mg480  1  0.917838  0.533936  0.774200  1
  Be  Be481  1  0.055649  0.194463  0.194505  1
  Be  Be482  1  0.055649  0.194463  0.694505  1
  Be  Be483  1  0.055649  0.694463  0.194505  1
  Be  Be484  1  0.055649  0.694463  0.694505  1
  Be  Be485  1  0.555649  0.194463  0.194505  1
  Be  Be486  1  0.555649  0.194463  0.694505  1
  Be  Be487  1  0.555649  0.694463  0.194505  1
  Be  Be488  1  0.555649  0.694463  0.694505  1
  Be  Be489  1  0.194316  0.055487  0.055460  1
  Be  Be490  1  0.194316  0.055487  0.555460  1
  Be  Be491  1  0.194316  0.555487  0.055460  1
  Be  Be492  1  0.194316  0.555487  0.555460  1
  Be  Be493  1  0.694316  0.055487  0.055460  1
  Be  Be494  1  0.694316  0.055487  0.555460  1
  Be  Be495  1  0.694316  0.555487  0.055460  1
  Be  Be496  1  0.694316  0.555487  0.555460  1
  Be  Be497  1  0.055429  0.194298  0.055445  1
  Be  Be498  1  0.055429  0.194298  0.555445  1
  Be  Be499  1  0.055430  0.694298  0.055445  1
  Be  Be500  1  0.055430  0.694298  0.555445  1
  Be  Be501  1  0.555430  0.194298  0.055445  1
  Be  Be502  1  0.555430  0.194298  0.555445  1
  Be  Be503  1  0.555430  0.694298  0.055445  1
  Be  Be504  1  0.555430  0.694298  0.555445  1
  Be  Be505  1  0.194564  0.055628  0.194515  1
  Be  Be506  1  0.194564  0.055628  0.694515  1
  Be  Be507  1  0.194564  0.555628  0.194515  1
  Be  Be508  1  0.194564  0.555628  0.694515  1
  Be  Be509  1  0.694564  0.055628  0.194515  1
  Be  Be510  1  0.694564  0.055628  0.694515  1
  Be  Be511  1  0.694564  0.555628  0.194515  1
  Be  Be512  1  0.694564  0.555628  0.694515  1
  Be  Be513  1  0.055431  0.055476  0.194305  1
  Be  Be514  1  0.055431  0.055476  0.694305  1
  Be  Be515  1  0.055431  0.555476  0.194305  1
  Be  Be516  1  0.055431  0.555476  0.694305  1
  Be  Be517  1  0.555432  0.055476  0.194305  1
  Be  Be518  1  0.555432  0.055476  0.694305  1
  Be  Be519  1  0.555432  0.555476  0.194305  1
  Be  Be520  1  0.555432  0.555476  0.694305  1
  Be  Be521  1  0.194563  0.194472  0.055630  1
  Be  Be522  1  0.194563  0.194472  0.555630  1
  Be  Be523  1  0.194563  0.694473  0.055630  1
  Be  Be524  1  0.194563  0.694473  0.555630  1
  Be  Be525  1  0.694563  0.194472  0.055630  1
  Be  Be526  1  0.694563  0.194472  0.555630  1
  Be  Be527  1  0.694563  0.694473  0.055630  1
  Be  Be528  1  0.694563  0.694473  0.555630  1
  Be  Be529  1  0.305447  0.444371  0.305480  1
  Be  Be530  1  0.305447  0.444371  0.805480  1
  Be  Be531  1  0.305447  0.944371  0.305480  1
  Be  Be532  1  0.305447  0.944371  0.805480  1
  Be  Be533  1  0.805447  0.444371  0.305480  1
  Be  Be534  1  0.805447  0.444371  0.805480  1
  Be  Be535  1  0.805448  0.944371  0.305480  1
  Be  Be536  1  0.805448  0.944371  0.805480  1
  Be  Be537  1  0.444580  0.305700  0.444550  1
  Be  Be538  1  0.444580  0.305700  0.944550  1
  Be  Be539  1  0.444581  0.805700  0.444550  1
  Be  Be540  1  0.444581  0.805700  0.944550  1
  Be  Be541  1  0.944581  0.305700  0.444550  1
  Be  Be542  1  0.944581  0.305700  0.944550  1
  Be  Be543  1  0.944581  0.805700  0.444550  1
  Be  Be544  1  0.944581  0.805700  0.944550  1
  Be  Be545  1  0.305690  0.444510  0.444535  1
  Be  Be546  1  0.305690  0.444510  0.944535  1
  Be  Be547  1  0.305691  0.944510  0.444535  1
  Be  Be548  1  0.305691  0.944510  0.944535  1
  Be  Be549  1  0.805690  0.444510  0.444535  1
  Be  Be550  1  0.805690  0.444510  0.944535  1
  Be  Be551  1  0.805691  0.944510  0.444535  1
  Be  Be552  1  0.805691  0.944510  0.944535  1
  Be  Be553  1  0.444360  0.305532  0.305490  1
  Be  Be554  1  0.444360  0.305532  0.805490  1
  Be  Be555  1  0.444360  0.805531  0.305490  1
  Be  Be556  1  0.444360  0.805531  0.805490  1
  Be  Be557  1  0.944360  0.305532  0.305490  1
  Be  Be558  1  0.944360  0.305532  0.805490  1
  Be  Be559  1  0.944360  0.805531  0.305490  1
  Be  Be560  1  0.944360  0.805531  0.805490  1
  Be  Be561  1  0.444578  0.444521  0.305690  1
  Be  Be562  1  0.444578  0.444521  0.805690  1
  Be  Be563  1  0.444578  0.944521  0.305690  1
  Be  Be564  1  0.444578  0.944521  0.805690  1
  Be  Be565  1  0.944578  0.444521  0.305690  1
  Be  Be566  1  0.944578  0.444521  0.805690  1
  Be  Be567  1  0.944579  0.944521  0.305690  1
  Be  Be568  1  0.944579  0.944521  0.805690  1
  Be  Be569  1  0.305448  0.305524  0.444365  1
  Be  Be570  1  0.305448  0.305524  0.944365  1
  Be  Be571  1  0.305448  0.805524  0.444365  1
  Be  Be572  1  0.305448  0.805524  0.944365  1
  Be  Be573  1  0.805448  0.305524  0.444365  1
  Be  Be574  1  0.805448  0.305524  0.944365  1
  Be  Be575  1  0.805448  0.805524  0.444365  1
  Be  Be576  1  0.805448  0.805524  0.944365  1
  Al  Al577  1  0.125025  0.125029  0.125025  1
  Al  Al578  1  0.125025  0.125029  0.625025  1
  Al  Al579  1  0.125025  0.625030  0.125025  1
  Al  Al580  1  0.125025  0.625030  0.625025  1
  Al  Al581  1  0.625024  0.125029  0.125025  1
  Al  Al582  1  0.625024  0.125029  0.625025  1
  Al  Al583  1  0.625024  0.625030  0.125025  1
  Al  Al584  1  0.625024  0.625030  0.625025  1
  Al  Al585  1  0.374985  0.374968  0.374970  1
  Al  Al586  1  0.374985  0.374968  0.874970  1
  Al  Al587  1  0.374985  0.874968  0.374970  1
  Al  Al588  1  0.374985  0.874968  0.874970  1
  Al  Al589  1  0.874985  0.374968  0.374970  1
  Al  Al590  1  0.874985  0.374968  0.874970  1
  Al  Al591  1  0.874985  0.874968  0.374970  1
  Al  Al592  1  0.874985  0.874968  0.874970  1
  Si  Si593  1  0.097547  0.183494  0.183605  1
  Si  Si594  1  0.097547  0.183494  0.683605  1
  Si  Si595  1  0.097546  0.683494  0.183605  1
  Si  Si596  1  0.097546  0.683494  0.683605  1
  Si  Si597  1  0.597546  0.183494  0.183605  1
  Si  Si598  1  0.597546  0.183494  0.683605  1
  Si  Si599  1  0.597547  0.683494  0.183605  1
  Si  Si600  1  0.597547  0.683494  0.683605  1
  Si  Si601  1  0.183177  0.097315  0.035705  1
  Si  Si602  1  0.183177  0.097315  0.535705  1
  Si  Si603  1  0.183178  0.597315  0.035705  1
  Si  Si604  1  0.183178  0.597315  0.535705  1
  Si  Si605  1  0.683177  0.097315  0.035705  1
  Si  Si606  1  0.683177  0.097315  0.535705  1
  Si  Si607  1  0.683178  0.597315  0.035705  1
  Si  Si608  1  0.683178  0.597315  0.535705  1
  Si  Si609  1  0.183233  0.035754  0.097315  1
  Si  Si610  1  0.183233  0.035754  0.597315  1
  Si  Si611  1  0.183232  0.535754  0.097315  1
  Si  Si612  1  0.183232  0.535754  0.597315  1
  Si  Si613  1  0.683233  0.035754  0.097315  1
  Si  Si614  1  0.683233  0.035754  0.597315  1
  Si  Si615  1  0.683233  0.535754  0.097315  1
  Si  Si616  1  0.683233  0.535754  0.597315  1
  Si  Si617  1  0.035856  0.183320  0.183315  1
  Si  Si618  1  0.035856  0.183320  0.683315  1
  Si  Si619  1  0.035856  0.683320  0.183315  1
  Si  Si620  1  0.035856  0.683320  0.683315  1
  Si  Si621  1  0.535856  0.183320  0.183315  1
  Si  Si622  1  0.535856  0.183320  0.683315  1
  Si  Si623  1  0.535857  0.683320  0.183315  1
  Si  Si624  1  0.535857  0.683320  0.683315  1
  Si  Si625  1  0.097323  0.183228  0.035670  1
  Si  Si626  1  0.097323  0.183228  0.535670  1
  Si  Si627  1  0.097323  0.683228  0.035670  1
  Si  Si628  1  0.097323  0.683228  0.535670  1
  Si  Si629  1  0.597323  0.183228  0.035670  1
  Si  Si630  1  0.597323  0.183228  0.535670  1
  Si  Si631  1  0.597323  0.683228  0.035670  1
  Si  Si632  1  0.597323  0.683228  0.535670  1
  Si  Si633  1  0.183338  0.035875  0.183365  1
  Si  Si634  1  0.183338  0.035875  0.683365  1
  Si  Si635  1  0.183338  0.535876  0.183365  1
  Si  Si636  1  0.183338  0.535876  0.683365  1
  Si  Si637  1  0.683338  0.035875  0.183365  1
  Si  Si638  1  0.683338  0.035875  0.683365  1
  Si  Si639  1  0.683338  0.535876  0.183365  1
  Si  Si640  1  0.683338  0.535876  0.683365  1
  Si  Si641  1  0.183709  0.097476  0.183555  1
  Si  Si642  1  0.183709  0.097476  0.683555  1
  Si  Si643  1  0.183709  0.597476  0.183555  1
  Si  Si644  1  0.183709  0.597476  0.683555  1
  Si  Si645  1  0.683709  0.097476  0.183555  1
  Si  Si646  1  0.683709  0.097476  0.683555  1
  Si  Si647  1  0.683709  0.597476  0.183555  1
  Si  Si648  1  0.683709  0.597476  0.683555  1
  Si  Si649  1  0.035633  0.183141  0.097310  1
  Si  Si650  1  0.035633  0.183141  0.597310  1
  Si  Si651  1  0.035633  0.683141  0.097310  1
  Si  Si652  1  0.035633  0.683141  0.597310  1
  Si  Si653  1  0.535633  0.183141  0.097310  1
  Si  Si654  1  0.535633  0.183141  0.597310  1
  Si  Si655  1  0.535633  0.683141  0.097310  1
  Si  Si656  1  0.535633  0.683141  0.597310  1
  Si  Si657  1  0.097321  0.035731  0.183265  1
  Si  Si658  1  0.097321  0.035731  0.683265  1
  Si  Si659  1  0.097321  0.535731  0.183265  1
  Si  Si660  1  0.097321  0.535731  0.683265  1
  Si  Si661  1  0.597321  0.035731  0.183265  1
  Si  Si662  1  0.597321  0.035731  0.683265  1
  Si  Si663  1  0.597321  0.535731  0.183265  1
  Si  Si664  1  0.597321  0.535731  0.683265  1
  Si  Si665  1  0.183735  0.183463  0.097500  1
  Si  Si666  1  0.183735  0.183463  0.597500  1
  Si  Si667  1  0.183735  0.683463  0.097500  1
  Si  Si668  1  0.183735  0.683463  0.597500  1
  Si  Si669  1  0.683735  0.183463  0.097500  1
  Si  Si670  1  0.683735  0.183463  0.597500  1
  Si  Si671  1  0.683735  0.683463  0.097500  1
  Si  Si672  1  0.683735  0.683463  0.597500  1
  Si  Si673  1  0.183327  0.183354  0.035855  1
  Si  Si674  1  0.183327  0.183354  0.535855  1
  Si  Si675  1  0.183327  0.683354  0.035855  1
  Si  Si676  1  0.183327  0.683354  0.535855  1
  Si  Si677  1  0.683327  0.183354  0.035855  1
  Si  Si678  1  0.683327  0.183354  0.535855  1
  Si  Si679  1  0.683327  0.683354  0.035855  1
  Si  Si680  1  0.683327  0.683354  0.535855  1
  Si  Si681  1  0.035643  0.097310  0.183125  1
  Si  Si682  1  0.035643  0.097310  0.683125  1
  Si  Si683  1  0.035643  0.597310  0.183125  1
  Si  Si684  1  0.035643  0.597310  0.683125  1
  Si  Si685  1  0.535643  0.097310  0.183125  1
  Si  Si686  1  0.535643  0.097310  0.683125  1
  Si  Si687  1  0.535643  0.597310  0.183125  1
  Si  Si688  1  0.535643  0.597310  0.683125  1
  Si  Si689  1  0.316301  0.402522  0.316440  1
  Si  Si690  1  0.316301  0.402522  0.816440  1
  Si  Si691  1  0.316301  0.902522  0.316440  1
  Si  Si692  1  0.316301  0.902522  0.816440  1
  Si  Si693  1  0.816301  0.402522  0.316440  1
  Si  Si694  1  0.816301  0.402522  0.816440  1
  Si  Si695  1  0.816301  0.902522  0.316440  1
  Si  Si696  1  0.816301  0.902522  0.816440  1
  Si  Si697  1  0.402687  0.316769  0.464325  1
  Si  Si698  1  0.402687  0.316769  0.964325  1
  Si  Si699  1  0.402687  0.816769  0.464325  1
  Si  Si700  1  0.402687  0.816769  0.964325  1
  Si  Si701  1  0.902687  0.316769  0.464325  1
  Si  Si702  1  0.902687  0.316769  0.964325  1
  Si  Si703  1  0.902687  0.816769  0.464325  1
  Si  Si704  1  0.902687  0.816769  0.964325  1
  Si  Si705  1  0.464377  0.316855  0.402685  1
  Si  Si706  1  0.464377  0.316855  0.902685  1
  Si  Si707  1  0.464377  0.816855  0.402685  1
  Si  Si708  1  0.464377  0.816855  0.902685  1
  Si  Si709  1  0.964377  0.316855  0.402685  1
  Si  Si710  1  0.964377  0.316855  0.902685  1
  Si  Si711  1  0.964377  0.816855  0.402685  1
  Si  Si712  1  0.964377  0.816855  0.902685  1
  Si  Si713  1  0.316673  0.464122  0.316630  1
  Si  Si714  1  0.316673  0.464122  0.816630  1
  Si  Si715  1  0.316673  0.964122  0.316630  1
  Si  Si716  1  0.316673  0.964122  0.816630  1
  Si  Si717  1  0.816673  0.464122  0.316630  1
  Si  Si718  1  0.816673  0.464122  0.816630  1
  Si  Si719  1  0.816673  0.964122  0.316630  1
  Si  Si720  1  0.816673  0.964122  0.816630  1
  Si  Si721  1  0.316831  0.402682  0.464290  1
  Si  Si722  1  0.316831  0.402682  0.964290  1
  Si  Si723  1  0.316831  0.902682  0.464290  1
  Si  Si724  1  0.316831  0.902682  0.964290  1
  Si  Si725  1  0.816831  0.402682  0.464290  1
  Si  Si726  1  0.816831  0.402682  0.964290  1
  Si  Si727  1  0.816831  0.902682  0.464290  1
  Si  Si728  1  0.816831  0.902682  0.964290  1
  Si  Si729  1  0.464153  0.316675  0.316680  1
  Si  Si730  1  0.464153  0.316675  0.816680  1
  Si  Si731  1  0.464153  0.816674  0.316680  1
  Si  Si732  1  0.464153  0.816674  0.816680  1
  Si  Si733  1  0.964153  0.316675  0.316680  1
  Si  Si734  1  0.964153  0.316675  0.816680  1
  Si  Si735  1  0.964153  0.816674  0.316680  1
  Si  Si736  1  0.964153  0.816674  0.816680  1
  Si  Si737  1  0.402463  0.316503  0.316390  1
  Si  Si738  1  0.402463  0.316503  0.816390  1
  Si  Si739  1  0.402463  0.816503  0.316390  1
  Si  Si740  1  0.402463  0.816503  0.816390  1
  Si  Si741  1  0.902463  0.316503  0.316390  1
  Si  Si742  1  0.902463  0.316503  0.816390  1
  Si  Si743  1  0.902463  0.816503  0.316390  1
  Si  Si744  1  0.902463  0.816503  0.816390  1
  Si  Si745  1  0.316775  0.464243  0.402680  1
  Si  Si746  1  0.316775  0.464243  0.902680  1
  Si  Si747  1  0.316775  0.964244  0.402680  1
  Si  Si748  1  0.316775  0.964244  0.902680  1
  Si  Si749  1  0.816775  0.464243  0.402680  1
  Si  Si750  1  0.816775  0.464243  0.902680  1
  Si  Si751  1  0.816775  0.964244  0.402680  1
  Si  Si752  1  0.816775  0.964244  0.902680  1
  Si  Si753  1  0.464367  0.402687  0.316865  1
  Si  Si754  1  0.464367  0.402687  0.816865  1
  Si  Si755  1  0.464367  0.902687  0.316865  1
  Si  Si756  1  0.464367  0.902687  0.816865  1
  Si  Si757  1  0.964367  0.402687  0.316865  1
  Si  Si758  1  0.964367  0.402687  0.816865  1
  Si  Si759  1  0.964367  0.902687  0.316865  1
  Si  Si760  1  0.964367  0.902687  0.816865  1
  Si  Si761  1  0.316276  0.316534  0.402495  1
  Si  Si762  1  0.316276  0.316534  0.902495  1
  Si  Si763  1  0.316276  0.816534  0.402495  1
  Si  Si764  1  0.316276  0.816534  0.902495  1
  Si  Si765  1  0.816276  0.316534  0.402495  1
  Si  Si766  1  0.816276  0.316534  0.902495  1
  Si  Si767  1  0.816276  0.816534  0.402495  1
  Si  Si768  1  0.816276  0.816534  0.902495  1
  Si  Si769  1  0.316684  0.316642  0.464140  1
  Si  Si770  1  0.316684  0.316642  0.964140  1
  Si  Si771  1  0.316684  0.816642  0.464140  1
  Si  Si772  1  0.316684  0.816642  0.964140  1
  Si  Si773  1  0.816684  0.316642  0.464140  1
  Si  Si774  1  0.816684  0.316642  0.964140  1
  Si  Si775  1  0.816684  0.816642  0.464140  1
  Si  Si776  1  0.816684  0.816642  0.964140  1
  Si  Si777  1  0.402689  0.464266  0.316730  1
  Si  Si778  1  0.402689  0.464266  0.816730  1
  Si  Si779  1  0.402689  0.964267  0.316730  1
  Si  Si780  1  0.402689  0.964267  0.816730  1
  Si  Si781  1  0.902689  0.464266  0.316730  1
  Si  Si782  1  0.902689  0.464266  0.816730  1
  Si  Si783  1  0.902689  0.964267  0.316730  1
  Si  Si784  1  0.902689  0.964267  0.816730  1
  Cl  Cl785  1  0.147020  0.146801  0.146890  1
  Cl  Cl786  1  0.147020  0.146801  0.646890  1
  Cl  Cl787  1  0.147020  0.646801  0.146890  1
  Cl  Cl788  1  0.147020  0.646801  0.646890  1
  Cl  Cl789  1  0.647020  0.146801  0.146890  1
  Cl  Cl790  1  0.647020  0.146801  0.646890  1
  Cl  Cl791  1  0.647020  0.646801  0.146890  1
  Cl  Cl792  1  0.647020  0.646801  0.646890  1
  Cl  Cl793  1  0.146575  0.146615  0.059840  1
  Cl  Cl794  1  0.146575  0.146615  0.559840  1
  Cl  Cl795  1  0.146575  0.646614  0.059840  1
  Cl  Cl796  1  0.146575  0.646614  0.559840  1
  Cl  Cl797  1  0.646575  0.146615  0.059840  1
  Cl  Cl798  1  0.646575  0.146615  0.559840  1
  Cl  Cl799  1  0.646575  0.646614  0.059840  1
  Cl  Cl800  1  0.646575  0.646614  0.559840  1
  Cl  Cl801  1  0.146597  0.059892  0.146625  1
  Cl  Cl802  1  0.146597  0.059892  0.646625  1
  Cl  Cl803  1  0.146597  0.559891  0.146625  1
  Cl  Cl804  1  0.146597  0.559891  0.646625  1
  Cl  Cl805  1  0.646597  0.059892  0.146625  1
  Cl  Cl806  1  0.646597  0.059892  0.646625  1
  Cl  Cl807  1  0.646597  0.559891  0.146625  1
  Cl  Cl808  1  0.646597  0.559891  0.646625  1
  Cl  Cl809  1  0.059792  0.146571  0.146550  1
  Cl  Cl810  1  0.059792  0.146571  0.646550  1
  Cl  Cl811  1  0.059792  0.646571  0.146550  1
  Cl  Cl812  1  0.059792  0.646571  0.646550  1
  Cl  Cl813  1  0.559791  0.146571  0.146550  1
  Cl  Cl814  1  0.559791  0.146571  0.646550  1
  Cl  Cl815  1  0.559791  0.646571  0.146550  1
  Cl  Cl816  1  0.559791  0.646571  0.646550  1
  Cl  Cl817  1  0.352990  0.353196  0.353105  1
  Cl  Cl818  1  0.352990  0.353196  0.853105  1
  Cl  Cl819  1  0.352990  0.853197  0.353105  1
  Cl  Cl820  1  0.352990  0.853197  0.853105  1
  Cl  Cl821  1  0.852990  0.353196  0.353105  1
  Cl  Cl822  1  0.852990  0.353196  0.853105  1
  Cl  Cl823  1  0.852989  0.853197  0.353105  1
  Cl  Cl824  1  0.852989  0.853197  0.853105  1
  Cl  Cl825  1  0.353434  0.353383  0.440155  1
  Cl  Cl826  1  0.353434  0.353383  0.940155  1
  Cl  Cl827  1  0.353434  0.853383  0.440155  1
  Cl  Cl828  1  0.353434  0.853383  0.940155  1
  Cl  Cl829  1  0.853434  0.353383  0.440155  1
  Cl  Cl830  1  0.853434  0.353383  0.940155  1
  Cl  Cl831  1  0.853435  0.853383  0.440155  1
  Cl  Cl832  1  0.853435  0.853383  0.940155  1
  Cl  Cl833  1  0.440218  0.353426  0.353435  1
  Cl  Cl834  1  0.440218  0.353426  0.853435  1
  Cl  Cl835  1  0.440218  0.853426  0.353435  1
  Cl  Cl836  1  0.440218  0.853426  0.853435  1
  Cl  Cl837  1  0.940218  0.353426  0.353435  1
  Cl  Cl838  1  0.940218  0.353426  0.853435  1
  Cl  Cl839  1  0.940218  0.853426  0.353435  1
  Cl  Cl840  1  0.940218  0.853426  0.853435  1
  Cl  Cl841  1  0.353413  0.440106  0.353370  1
  Cl  Cl842  1  0.353413  0.440106  0.853370  1
  Cl  Cl843  1  0.353413  0.940106  0.353370  1
  Cl  Cl844  1  0.353413  0.940106  0.853370  1
  Cl  Cl845  1  0.853413  0.440106  0.353370  1
  Cl  Cl846  1  0.853413  0.440106  0.853370  1
  Cl  Cl847  1  0.853413  0.940106  0.353370  1
  Cl  Cl848  1  0.853413  0.940106  0.853370  1
